
 ANSYS Academic Research                           


 *------------------------------------------------------------------*
 |                                                                  |
 |   W E L C O M E   T O   T H E   A N S Y S (R)  P R O G R A M     |
 |                                                                  |
 *------------------------------------------------------------------*




 ***************************************************************
 *            ANSYS Release 17.2     LEGAL NOTICES             *
 ***************************************************************
 *                                                             *
 * Copyright 2016 SAS IP, Inc.  All rights reserved.           *
 * Unauthorized use, distribution or duplication is            *
 * prohibited.                                                 *
 *                                                             *
 * Ansys is a registered trademark of ANSYS, Inc. or its       *
 * subsidiaries in the United States or other countries.       *
 * See the ANSYS, Inc. online documentation or the ANSYS, Inc. *
 * documentation CD or online help for the complete Legal      *
 * Notice.                                                     *
 *                                                             *
 ***************************************************************
 *                                                             *
 * THIS ANSYS SOFTWARE PRODUCT AND PROGRAM DOCUMENTATION       *
 * INCLUDE TRADE SECRETS AND CONFIDENTIAL AND PROPRIETARY      *
 * PRODUCTS OF ANSYS, INC., ITS SUBSIDIARIES, OR LICENSORS.    *
 * The software products and documentation are furnished by    *
 * ANSYS, Inc. or its subsidiaries under a software license    *
 * agreement that contains provisions concerning               *
 * non-disclosure, copying, length and nature of use,          *
 * compliance with exporting laws, warranties, disclaimers,    *
 * limitations of liability, and remedies, and other           *
 * provisions.  The software products and documentation may be *
 * used, disclosed, transferred, or copied only in accordance  *
 * with the terms and conditions of that software license      *
 * agreement.                                                  *
 *                                                             *
 * ANSYS, Inc. is a UL registered                              *
 * ISO 9001:2008 company.                                      *
 *                                                             *
 ***************************************************************
 *                                                             *
 * This product is subject to U.S. laws governing export and   *
 * re-export.                                                  *
 *                                                             *
 * For U.S. Government users, except as specifically granted   *
 * by the ANSYS, Inc. software license agreement, the use,     *
 * duplication, or disclosure by the United States Government  *
 * is subject to restrictions stated in the ANSYS, Inc.        *
 * software license agreement and FAR 12.212 (for non-DOD      *
 * licenses).                                                  *
 *                                                             *
 ***************************************************************


 AFTER YOU HAVE READ, UNDERSTOOD, AND AGREED TO THE PREVIOUS NOTICES,
 PRESS <CR> OR <ENTER> TO CONTINUE
 Release 17.2
     
 Point Releases and Patches installed:   
     
 ANSYS, Inc. Products Release 17.2   
 ANSYS Mechanical Products Release 17.2  
 ANSYS Customization Files for User Programmable Features Release 17.2   
 ANSYS Autodyn Release 17.2  
 ANSYS LS-DYNA Release 17.2  
 ANSYS CFX (includes ANSYS CFD-Post) Release 17.2
 ANSYS Fluent (includes ANSYS CFD-Post) Release 17.2 
 ANSYS TurboGrid Release 17.2
 ANSYS Polyflow (includes ANSYS CFD-Post) Release 17.2   
 ANSYS CFD-Post only Release 17.2
 ANSYS Forte Release 17.2
 ANSYS Chemkin Release 17.2  
 ANSYS ICEM CFD Release 17.2 
 ANSYS Composite PrepPost Release 17.2   
 ANSYS Icepak (includes ANSYS CFD-Post) Release 17.2 
 ANSYS Remote Solve Manager Standalone Services Release 17.2 
 ACIS Release 17.2   
 Catia, Version 5 Release 17.2   
 NX Release 17.2 
 Parasolid Release 17.2  
 ANSYS, Inc. License Manager Release 17.2


          *****  ANSYS COMMAND LINE ARGUMENTS  *****
  INITIAL JOBNAME              = input                                                                                                                                                                                                                                                   
  BATCH MODE REQUESTED (-b)    = LIST
  INPUT FILE COPY MODE (-c)    = COPY
  DESIGNXPLORER REQUESTED
  INPUT FILE NAME              = /shared/multisim2/DVC/ShIRTImagesResults/me1ibe/2D_brain/Results/Specimen1/VOI0/NodeSpacing10/input.txt
  OUTPUT FILE NAME             = /shared/multisim2/DVC/ShIRTImagesResults/me1ibe/2D_brain/Results/Specimen1/VOI0/NodeSpacing10/output.out
  START-UP FILE MODE           = READ  
  STOP FILE MODE               = READ  
  LANGUAGE                     = en-us               
  INITIAL DIRECTORY = /shared/multisim2/DVC/ShIRTImagesResults/me1ibe/2D_brain/Results/Specimen1/VOI0/NodeSpacing10

 RELEASE= Release 17.2         BUILD= 17.2      UP20160718   VERSION=LINUX x64   
 CURRENT JOBNAME=input  15:21:27  JUL 28, 2019 CP=      0.244

     1  fini
     2  /cle
     3      
     4  /prep7  
     5      
     6  ET,1,SOLID185   
     7      
     8  /INPUT,'nodes','txt'
     9  /INPUT,'elements','txt' 
    10      
    11  MP,EX,1,17000   
    12  MP,PRXY,1,0.3   
    13      
    14      
    15  /FORMAT, , F15.10, 15, 10, 1000000000, ,
    16      
    17  /solu   
    18      
    19  /INPUT,'disp','txt' 
    20      
    21  allsel  
    22  eqslv,pcg   
    23  solve   
    24  FINISH  
    25      
    26      
    27  /prep7  
    28      
    29  /set, last  
    30  CDWRITE,DB,input,CDB
    31      
    32      
    33      
    34  /POST1  
    35      
    36  /OUTPUT,ANSYS_results,txt     ! redirect output to a file called "ANSYS_results.txt" with principal strains 
    37  PRNSOL, EPEL, PRIN  
    38  /out
    39      
    40  /OUTPUT,ANSYS_results_xyz,txt     ! redirect output to a file called "ANSYS_results_xyz.txt" with strain components 
    41  PRNSOL, EPEL, COMP  
    42  /out
    43      
    44      
    45  ! Create element table, column 1 to 6 is components, 7 to 9 are principal strain
    46  ETABLE,StrainXX,EPEL,X,avg  
    47  ETABLE,StrainYY,EPEL,Y,avg  
    48  ETABLE,StrainZZ,EPEL,Z,avg  
    49  ETABLE,StrainXY,EPEL,XY,avg 
    50  ETABLE,StrainYZ,EPEL,YZ,avg 
    51  ETABLE,StrainXZ,EPEL,XZ,avg 
    52      
    53  ETABLE,Strain1,EPEL,1,avg   
    54  ETABLE,Strain2,EPEL,2,avg   
    55  ETABLE,Strain3,EPEL,3,avg   
    56      
    57  !!!!!!!!!!!!!!!!!!!!!!!!!!!!!!!!!!!!!!!!!!!!!!!!!!!!!!!!!!  
    58      
    59      
    60  *get,nElements,ELEM,0,count 
    61  *status,nElements   
    62      
    63      
    64  !Create an array to store strain components 
    65  *DIM,vData,ARRAY,nElements,7
    66      
    67  !Create an array to store strain principal  
    68  *DIM,vData2,ARRAY,nElements,4   
    69      
    70  !!!!!!!!!!!!!!!!!!!!!!!!!!!!!!!!!!!!!!!!!!!!!!!!!!!!!!!!!!  
    71  ! Loop over each element
    72      
    73  N = 0   
    74      
    75  *do,i,1,nElements   
    76      
    77       *get,ElemNum,ELEM,N,NXTH   
    78        vData(i,1) = ElemNum  
    79       *get,vData(i,2),ETAB,1,ELEM,ElemNum
    80       *get,vData(i,3),ETAB,2,ELEM,ElemNum
    81       *get,vData(i,4),ETAB,3,ELEM,ElemNum
    82       *get,vData(i,5),ETAB,4,ELEM,ElemNum
    83       *get,vData(i,6),ETAB,5,ELEM,ElemNum
    84       *get,vData(i,7),ETAB,6,ELEM,ElemNum
    85      
    86      
    87       vData2(i,1) = ElemNum  
    88       *get,vData2(i,2),ETAB,7,ELEM,ElemNum   
    89       *get,vData2(i,3),ETAB,8,ELEM,ElemNum   
    90       *get,vData2(i,4),ETAB,9,ELEM,ElemNum   
    91      
    92       N = ElemNum
    93      
    94  *enddo  
    95      
    96      
    97  !!!!!!!!!!!!!!!!!!!!!!!!!!!!!!!!!!!!!!!!!!!!!!!!!!!!!!!!!!!!
    98      
    99  !output results into ASCII file StrainTensor.txt
   100  *cfopen,ANSYS_results_elements_xyz,txt  
   101  *vwrite,vData(1,1),vData(1,2),vData(1,3),vData(1,4),vData(1,5),vData(1,6),vData(1,7)
   102  (F10.0,TL1,' ','  'F15.10,'  ',F15.10,'  ',F15.10,'  ',F15.10,'  ',F15.10,'  ',F15.10)  
   103  *cfclos 
   104      
   105      
   106  !output results into ASCII file StrainPrincipal.txt 
   107  *cfopen,ANSYS_results_elements,txt  
   108  *vwrite,vData2(1,1),vData2(1,2),vData2(1,3),vData2(1,4) 
   109  (F10.0,TL1,' ','  'F15.10,'  ',F15.10,'  ',F15.10)  
   110  *cfclos 
   111      
   112      
   113      
   114      
   115      
   116      
   117      
   118      
   119  finish  

 RUN SETUP PROCEDURE FROM FILE= /usr/local/packages/apps/ansys/17.2/v172/ansys/apdl/start.ans

 *** NOTE ***                            CP =       0.247   TIME= 15:21:27
 *** IMPORTANT LICENSING MESSAGE ***                                     
                                                                         
 ANSYS LICENSE MANAGER MESSAGE                                           
 ansyslm.shef.ac.uk: Your ANSYS Technical Enhancements & Customer        
 Support (TECS) agreement will expire on 31-Jul-2019 for one             
 or more ANSYS products.                                                 
 Please contact your ANSYS Sales Representative                          
 or ANSYS, Inc.  To renew this agreement.                                

 /INPUT FILE= /usr/local/packages/apps/ansys/17.2/v172/ansys/apdl/start.ans  LINE=       0

 CLEAR DATABASE AND RERUN START.ANS

 RUN SETUP PROCEDURE FROM FILE= /usr/local/packages/apps/ansys/17.2/v172/ansys/apdl/start.ans

 ANSYS Academic Research                           

 /INPUT FILE= /usr/local/packages/apps/ansys/17.2/v172/ansys/apdl/start.ans  LINE=       0

 *** ANSYS - ENGINEERING ANALYSIS SYSTEM  RELEASE Release 17.2     17.2     ***
 ANSYS Academic Research                           
 00210476  VERSION=LINUX x64     15:21:28  JUL 28, 2019 CP=      0.428

                                                                               



          ***** ANSYS ANALYSIS DEFINITION (PREP7) *****

 ELEMENT TYPE       1 IS SOLID185     3-D 8-NODE STRUCTURAL SOLID 
  KEYOPT( 1- 6)=        0      0      0        0      0      0
  KEYOPT( 7-12)=        0      0      0        0      0      0
  KEYOPT(13-18)=        0      0      0        0      0      0

 CURRENT NODAL DOF SET IS  UX    UY    UZ  
  THREE-DIMENSIONAL MODEL

 /INPUT FILE= nodes.txt  LINE=       0

 NODE         1  KCS=      0  X,Y,Z= 0.50000E-003-0.45000E-002  0.0000     

 NODE         2  KCS=      0  X,Y,Z= 0.50000E-003 0.55000E-002  0.0000     

 NODE         3  KCS=      0  X,Y,Z= 0.50000E-003 0.15500E-001  0.0000     

 NODE         4  KCS=      0  X,Y,Z= 0.50000E-003 0.25500E-001  0.0000     

 NODE         5  KCS=      0  X,Y,Z= 0.50000E-003 0.35500E-001  0.0000     

 NODE         6  KCS=      0  X,Y,Z= 0.50000E-003 0.45500E-001  0.0000     

 NODE         7  KCS=      0  X,Y,Z= 0.50000E-003 0.55500E-001  0.0000     

 NODE         8  KCS=      0  X,Y,Z= 0.50000E-003 0.65500E-001  0.0000     

 NODE         9  KCS=      0  X,Y,Z= 0.50000E-003 0.75500E-001  0.0000     

 NODE        10  KCS=      0  X,Y,Z= 0.50000E-003 0.85500E-001  0.0000     

 NODE        11  KCS=      0  X,Y,Z= 0.50000E-003 0.95500E-001  0.0000     

 NODE        12  KCS=      0  X,Y,Z= 0.50000E-003 0.10550       0.0000     

 NODE        13  KCS=      0  X,Y,Z= 0.50000E-003 0.11550       0.0000     

 NODE        14  KCS=      0  X,Y,Z= 0.50000E-003 0.12550       0.0000     

 NODE        15  KCS=      0  X,Y,Z= 0.50000E-003 0.13550       0.0000     

 NODE        16  KCS=      0  X,Y,Z= 0.50000E-003 0.14550       0.0000     

 NODE        17  KCS=      0  X,Y,Z= 0.50000E-003 0.15550       0.0000     

 NODE        18  KCS=      0  X,Y,Z= 0.50000E-003 0.16550       0.0000     

 NODE        19  KCS=      0  X,Y,Z= 0.50000E-003 0.17550       0.0000     

 NODE        20  KCS=      0  X,Y,Z= 0.50000E-003 0.18550       0.0000     

 NODE        21  KCS=      0  X,Y,Z= 0.50000E-003 0.19550       0.0000     

 NODE        22  KCS=      0  X,Y,Z= 0.50000E-003 0.20550       0.0000     

 NODE        23  KCS=      0  X,Y,Z= 0.50000E-003 0.21550       0.0000     

 NODE        24  KCS=      0  X,Y,Z= 0.50000E-003 0.22550       0.0000     

 NODE        25  KCS=      0  X,Y,Z= 0.50000E-003 0.23550       0.0000     

 NODE        26  KCS=      0  X,Y,Z= 0.50000E-003 0.24550       0.0000     

 NODE        27  KCS=      0  X,Y,Z= 0.50000E-003 0.25550       0.0000     

 NODE        28  KCS=      0  X,Y,Z= 0.10500E-001-0.45000E-002  0.0000     

 NODE        29  KCS=      0  X,Y,Z= 0.10500E-001 0.55000E-002  0.0000     

 NODE        30  KCS=      0  X,Y,Z= 0.10500E-001 0.15500E-001  0.0000     

 NODE        31  KCS=      0  X,Y,Z= 0.10500E-001 0.25500E-001  0.0000     

 NODE        32  KCS=      0  X,Y,Z= 0.10500E-001 0.35500E-001  0.0000     

 NODE        33  KCS=      0  X,Y,Z= 0.10500E-001 0.45500E-001  0.0000     

 NODE        34  KCS=      0  X,Y,Z= 0.10500E-001 0.55500E-001  0.0000     

 NODE        35  KCS=      0  X,Y,Z= 0.10500E-001 0.65500E-001  0.0000     

 NODE        36  KCS=      0  X,Y,Z= 0.10500E-001 0.75500E-001  0.0000     

 NODE        37  KCS=      0  X,Y,Z= 0.10500E-001 0.85500E-001  0.0000     

 NODE        38  KCS=      0  X,Y,Z= 0.10500E-001 0.95500E-001  0.0000     

 NODE        39  KCS=      0  X,Y,Z= 0.10500E-001 0.10550       0.0000     

 NODE        40  KCS=      0  X,Y,Z= 0.10500E-001 0.11550       0.0000     

 NODE        41  KCS=      0  X,Y,Z= 0.10500E-001 0.12550       0.0000     

 NODE        42  KCS=      0  X,Y,Z= 0.10500E-001 0.13550       0.0000     

 NODE        43  KCS=      0  X,Y,Z= 0.10500E-001 0.14550       0.0000     

 NODE        44  KCS=      0  X,Y,Z= 0.10500E-001 0.15550       0.0000     

 NODE        45  KCS=      0  X,Y,Z= 0.10500E-001 0.16550       0.0000     

 NODE        46  KCS=      0  X,Y,Z= 0.10500E-001 0.17550       0.0000     

 NODE        47  KCS=      0  X,Y,Z= 0.10500E-001 0.18550       0.0000     

 NODE        48  KCS=      0  X,Y,Z= 0.10500E-001 0.19550       0.0000     

 NODE        49  KCS=      0  X,Y,Z= 0.10500E-001 0.20550       0.0000     

 NODE        50  KCS=      0  X,Y,Z= 0.10500E-001 0.21550       0.0000     

 NODE        51  KCS=      0  X,Y,Z= 0.10500E-001 0.22550       0.0000     

 NODE        52  KCS=      0  X,Y,Z= 0.10500E-001 0.23550       0.0000     

 NODE        53  KCS=      0  X,Y,Z= 0.10500E-001 0.24550       0.0000     

 NODE        54  KCS=      0  X,Y,Z= 0.10500E-001 0.25550       0.0000     

 NODE        55  KCS=      0  X,Y,Z= 0.20500E-001-0.45000E-002  0.0000     

 NODE        56  KCS=      0  X,Y,Z= 0.20500E-001 0.55000E-002  0.0000     

 NODE        57  KCS=      0  X,Y,Z= 0.20500E-001 0.15500E-001  0.0000     

 NODE        58  KCS=      0  X,Y,Z= 0.20500E-001 0.25500E-001  0.0000     

 NODE        59  KCS=      0  X,Y,Z= 0.20500E-001 0.35500E-001  0.0000     

 NODE        60  KCS=      0  X,Y,Z= 0.20500E-001 0.45500E-001  0.0000     

 NODE        61  KCS=      0  X,Y,Z= 0.20500E-001 0.55500E-001  0.0000     

 NODE        62  KCS=      0  X,Y,Z= 0.20500E-001 0.65500E-001  0.0000     

 NODE        63  KCS=      0  X,Y,Z= 0.20500E-001 0.75500E-001  0.0000     

 NODE        64  KCS=      0  X,Y,Z= 0.20500E-001 0.85500E-001  0.0000     

 NODE        65  KCS=      0  X,Y,Z= 0.20500E-001 0.95500E-001  0.0000     

 NODE        66  KCS=      0  X,Y,Z= 0.20500E-001 0.10550       0.0000     

 NODE        67  KCS=      0  X,Y,Z= 0.20500E-001 0.11550       0.0000     

 NODE        68  KCS=      0  X,Y,Z= 0.20500E-001 0.12550       0.0000     

 NODE        69  KCS=      0  X,Y,Z= 0.20500E-001 0.13550       0.0000     

 NODE        70  KCS=      0  X,Y,Z= 0.20500E-001 0.14550       0.0000     

 NODE        71  KCS=      0  X,Y,Z= 0.20500E-001 0.15550       0.0000     

 NODE        72  KCS=      0  X,Y,Z= 0.20500E-001 0.16550       0.0000     

 NODE        73  KCS=      0  X,Y,Z= 0.20500E-001 0.17550       0.0000     

 NODE        74  KCS=      0  X,Y,Z= 0.20500E-001 0.18550       0.0000     

 NODE        75  KCS=      0  X,Y,Z= 0.20500E-001 0.19550       0.0000     

 NODE        76  KCS=      0  X,Y,Z= 0.20500E-001 0.20550       0.0000     

 NODE        77  KCS=      0  X,Y,Z= 0.20500E-001 0.21550       0.0000     

 NODE        78  KCS=      0  X,Y,Z= 0.20500E-001 0.22550       0.0000     

 NODE        79  KCS=      0  X,Y,Z= 0.20500E-001 0.23550       0.0000     

 NODE        80  KCS=      0  X,Y,Z= 0.20500E-001 0.24550       0.0000     

 NODE        81  KCS=      0  X,Y,Z= 0.20500E-001 0.25550       0.0000     

 NODE        82  KCS=      0  X,Y,Z= 0.30500E-001-0.45000E-002  0.0000     

 NODE        83  KCS=      0  X,Y,Z= 0.30500E-001 0.55000E-002  0.0000     

 NODE        84  KCS=      0  X,Y,Z= 0.30500E-001 0.15500E-001  0.0000     

 NODE        85  KCS=      0  X,Y,Z= 0.30500E-001 0.25500E-001  0.0000     

 NODE        86  KCS=      0  X,Y,Z= 0.30500E-001 0.35500E-001  0.0000     

 NODE        87  KCS=      0  X,Y,Z= 0.30500E-001 0.45500E-001  0.0000     

 NODE        88  KCS=      0  X,Y,Z= 0.30500E-001 0.55500E-001  0.0000     

 NODE        89  KCS=      0  X,Y,Z= 0.30500E-001 0.65500E-001  0.0000     

 NODE        90  KCS=      0  X,Y,Z= 0.30500E-001 0.75500E-001  0.0000     

 NODE        91  KCS=      0  X,Y,Z= 0.30500E-001 0.85500E-001  0.0000     

 NODE        92  KCS=      0  X,Y,Z= 0.30500E-001 0.95500E-001  0.0000     

 NODE        93  KCS=      0  X,Y,Z= 0.30500E-001 0.10550       0.0000     

 NODE        94  KCS=      0  X,Y,Z= 0.30500E-001 0.11550       0.0000     

 NODE        95  KCS=      0  X,Y,Z= 0.30500E-001 0.12550       0.0000     

 NODE        96  KCS=      0  X,Y,Z= 0.30500E-001 0.13550       0.0000     

 NODE        97  KCS=      0  X,Y,Z= 0.30500E-001 0.14550       0.0000     

 NODE        98  KCS=      0  X,Y,Z= 0.30500E-001 0.15550       0.0000     

 NODE        99  KCS=      0  X,Y,Z= 0.30500E-001 0.16550       0.0000     

 NODE       100  KCS=      0  X,Y,Z= 0.30500E-001 0.17550       0.0000     

 NODE       101  KCS=      0  X,Y,Z= 0.30500E-001 0.18550       0.0000     

 NODE       102  KCS=      0  X,Y,Z= 0.30500E-001 0.19550       0.0000     

 NODE       103  KCS=      0  X,Y,Z= 0.30500E-001 0.20550       0.0000     

 NODE       104  KCS=      0  X,Y,Z= 0.30500E-001 0.21550       0.0000     

 NODE       105  KCS=      0  X,Y,Z= 0.30500E-001 0.22550       0.0000     

 NODE       106  KCS=      0  X,Y,Z= 0.30500E-001 0.23550       0.0000     

 NODE       107  KCS=      0  X,Y,Z= 0.30500E-001 0.24550       0.0000     

 NODE       108  KCS=      0  X,Y,Z= 0.30500E-001 0.25550       0.0000     

 NODE       109  KCS=      0  X,Y,Z= 0.40500E-001-0.45000E-002  0.0000     

 NODE       110  KCS=      0  X,Y,Z= 0.40500E-001 0.55000E-002  0.0000     

 NODE       111  KCS=      0  X,Y,Z= 0.40500E-001 0.15500E-001  0.0000     

 NODE       112  KCS=      0  X,Y,Z= 0.40500E-001 0.25500E-001  0.0000     

 NODE       113  KCS=      0  X,Y,Z= 0.40500E-001 0.35500E-001  0.0000     

 NODE       114  KCS=      0  X,Y,Z= 0.40500E-001 0.45500E-001  0.0000     

 NODE       115  KCS=      0  X,Y,Z= 0.40500E-001 0.55500E-001  0.0000     

 NODE       116  KCS=      0  X,Y,Z= 0.40500E-001 0.65500E-001  0.0000     

 NODE       117  KCS=      0  X,Y,Z= 0.40500E-001 0.75500E-001  0.0000     

 NODE       118  KCS=      0  X,Y,Z= 0.40500E-001 0.85500E-001  0.0000     

 NODE       119  KCS=      0  X,Y,Z= 0.40500E-001 0.95500E-001  0.0000     

 NODE       120  KCS=      0  X,Y,Z= 0.40500E-001 0.10550       0.0000     

 NODE       121  KCS=      0  X,Y,Z= 0.40500E-001 0.11550       0.0000     

 NODE       122  KCS=      0  X,Y,Z= 0.40500E-001 0.12550       0.0000     

 NODE       123  KCS=      0  X,Y,Z= 0.40500E-001 0.13550       0.0000     

 NODE       124  KCS=      0  X,Y,Z= 0.40500E-001 0.14550       0.0000     

 NODE       125  KCS=      0  X,Y,Z= 0.40500E-001 0.15550       0.0000     

 NODE       126  KCS=      0  X,Y,Z= 0.40500E-001 0.16550       0.0000     

 NODE       127  KCS=      0  X,Y,Z= 0.40500E-001 0.17550       0.0000     

 NODE       128  KCS=      0  X,Y,Z= 0.40500E-001 0.18550       0.0000     

 NODE       129  KCS=      0  X,Y,Z= 0.40500E-001 0.19550       0.0000     

 NODE       130  KCS=      0  X,Y,Z= 0.40500E-001 0.20550       0.0000     

 NODE       131  KCS=      0  X,Y,Z= 0.40500E-001 0.21550       0.0000     

 NODE       132  KCS=      0  X,Y,Z= 0.40500E-001 0.22550       0.0000     

 NODE       133  KCS=      0  X,Y,Z= 0.40500E-001 0.23550       0.0000     

 NODE       134  KCS=      0  X,Y,Z= 0.40500E-001 0.24550       0.0000     

 NODE       135  KCS=      0  X,Y,Z= 0.40500E-001 0.25550       0.0000     

 NODE       136  KCS=      0  X,Y,Z= 0.50500E-001-0.45000E-002  0.0000     

 NODE       137  KCS=      0  X,Y,Z= 0.50500E-001 0.55000E-002  0.0000     

 NODE       138  KCS=      0  X,Y,Z= 0.50500E-001 0.15500E-001  0.0000     

 NODE       139  KCS=      0  X,Y,Z= 0.50500E-001 0.25500E-001  0.0000     

 NODE       140  KCS=      0  X,Y,Z= 0.50500E-001 0.35500E-001  0.0000     

 NODE       141  KCS=      0  X,Y,Z= 0.50500E-001 0.45500E-001  0.0000     

 NODE       142  KCS=      0  X,Y,Z= 0.50500E-001 0.55500E-001  0.0000     

 NODE       143  KCS=      0  X,Y,Z= 0.50500E-001 0.65500E-001  0.0000     

 NODE       144  KCS=      0  X,Y,Z= 0.50500E-001 0.75500E-001  0.0000     

 NODE       145  KCS=      0  X,Y,Z= 0.50500E-001 0.85500E-001  0.0000     

 NODE       146  KCS=      0  X,Y,Z= 0.50500E-001 0.95500E-001  0.0000     

 NODE       147  KCS=      0  X,Y,Z= 0.50500E-001 0.10550       0.0000     

 NODE       148  KCS=      0  X,Y,Z= 0.50500E-001 0.11550       0.0000     

 NODE       149  KCS=      0  X,Y,Z= 0.50500E-001 0.12550       0.0000     

 NODE       150  KCS=      0  X,Y,Z= 0.50500E-001 0.13550       0.0000     

 NODE       151  KCS=      0  X,Y,Z= 0.50500E-001 0.14550       0.0000     

 NODE       152  KCS=      0  X,Y,Z= 0.50500E-001 0.15550       0.0000     

 NODE       153  KCS=      0  X,Y,Z= 0.50500E-001 0.16550       0.0000     

 NODE       154  KCS=      0  X,Y,Z= 0.50500E-001 0.17550       0.0000     

 NODE       155  KCS=      0  X,Y,Z= 0.50500E-001 0.18550       0.0000     

 NODE       156  KCS=      0  X,Y,Z= 0.50500E-001 0.19550       0.0000     

 NODE       157  KCS=      0  X,Y,Z= 0.50500E-001 0.20550       0.0000     

 NODE       158  KCS=      0  X,Y,Z= 0.50500E-001 0.21550       0.0000     

 NODE       159  KCS=      0  X,Y,Z= 0.50500E-001 0.22550       0.0000     

 NODE       160  KCS=      0  X,Y,Z= 0.50500E-001 0.23550       0.0000     

 NODE       161  KCS=      0  X,Y,Z= 0.50500E-001 0.24550       0.0000     

 NODE       162  KCS=      0  X,Y,Z= 0.50500E-001 0.25550       0.0000     

 NODE       163  KCS=      0  X,Y,Z= 0.60500E-001-0.45000E-002  0.0000     

 NODE       164  KCS=      0  X,Y,Z= 0.60500E-001 0.55000E-002  0.0000     

 NODE       165  KCS=      0  X,Y,Z= 0.60500E-001 0.15500E-001  0.0000     

 NODE       166  KCS=      0  X,Y,Z= 0.60500E-001 0.25500E-001  0.0000     

 NODE       167  KCS=      0  X,Y,Z= 0.60500E-001 0.35500E-001  0.0000     

 NODE       168  KCS=      0  X,Y,Z= 0.60500E-001 0.45500E-001  0.0000     

 NODE       169  KCS=      0  X,Y,Z= 0.60500E-001 0.55500E-001  0.0000     

 NODE       170  KCS=      0  X,Y,Z= 0.60500E-001 0.65500E-001  0.0000     

 NODE       171  KCS=      0  X,Y,Z= 0.60500E-001 0.75500E-001  0.0000     

 NODE       172  KCS=      0  X,Y,Z= 0.60500E-001 0.85500E-001  0.0000     

 NODE       173  KCS=      0  X,Y,Z= 0.60500E-001 0.95500E-001  0.0000     

 NODE       174  KCS=      0  X,Y,Z= 0.60500E-001 0.10550       0.0000     

 NODE       175  KCS=      0  X,Y,Z= 0.60500E-001 0.11550       0.0000     

 NODE       176  KCS=      0  X,Y,Z= 0.60500E-001 0.12550       0.0000     

 NODE       177  KCS=      0  X,Y,Z= 0.60500E-001 0.13550       0.0000     

 NODE       178  KCS=      0  X,Y,Z= 0.60500E-001 0.14550       0.0000     

 NODE       179  KCS=      0  X,Y,Z= 0.60500E-001 0.15550       0.0000     

 NODE       180  KCS=      0  X,Y,Z= 0.60500E-001 0.16550       0.0000     

 NODE       181  KCS=      0  X,Y,Z= 0.60500E-001 0.17550       0.0000     

 NODE       182  KCS=      0  X,Y,Z= 0.60500E-001 0.18550       0.0000     

 NODE       183  KCS=      0  X,Y,Z= 0.60500E-001 0.19550       0.0000     

 NODE       184  KCS=      0  X,Y,Z= 0.60500E-001 0.20550       0.0000     

 NODE       185  KCS=      0  X,Y,Z= 0.60500E-001 0.21550       0.0000     

 NODE       186  KCS=      0  X,Y,Z= 0.60500E-001 0.22550       0.0000     

 NODE       187  KCS=      0  X,Y,Z= 0.60500E-001 0.23550       0.0000     

 NODE       188  KCS=      0  X,Y,Z= 0.60500E-001 0.24550       0.0000     

 NODE       189  KCS=      0  X,Y,Z= 0.60500E-001 0.25550       0.0000     

 NODE       190  KCS=      0  X,Y,Z= 0.70500E-001-0.45000E-002  0.0000     

 NODE       191  KCS=      0  X,Y,Z= 0.70500E-001 0.55000E-002  0.0000     

 NODE       192  KCS=      0  X,Y,Z= 0.70500E-001 0.15500E-001  0.0000     

 NODE       193  KCS=      0  X,Y,Z= 0.70500E-001 0.25500E-001  0.0000     

 NODE       194  KCS=      0  X,Y,Z= 0.70500E-001 0.35500E-001  0.0000     

 NODE       195  KCS=      0  X,Y,Z= 0.70500E-001 0.45500E-001  0.0000     

 NODE       196  KCS=      0  X,Y,Z= 0.70500E-001 0.55500E-001  0.0000     

 NODE       197  KCS=      0  X,Y,Z= 0.70500E-001 0.65500E-001  0.0000     

 NODE       198  KCS=      0  X,Y,Z= 0.70500E-001 0.75500E-001  0.0000     

 NODE       199  KCS=      0  X,Y,Z= 0.70500E-001 0.85500E-001  0.0000     

 NODE       200  KCS=      0  X,Y,Z= 0.70500E-001 0.95500E-001  0.0000     

 NODE       201  KCS=      0  X,Y,Z= 0.70500E-001 0.10550       0.0000     

 NODE       202  KCS=      0  X,Y,Z= 0.70500E-001 0.11550       0.0000     

 NODE       203  KCS=      0  X,Y,Z= 0.70500E-001 0.12550       0.0000     

 NODE       204  KCS=      0  X,Y,Z= 0.70500E-001 0.13550       0.0000     

 NODE       205  KCS=      0  X,Y,Z= 0.70500E-001 0.14550       0.0000     

 NODE       206  KCS=      0  X,Y,Z= 0.70500E-001 0.15550       0.0000     

 NODE       207  KCS=      0  X,Y,Z= 0.70500E-001 0.16550       0.0000     

 NODE       208  KCS=      0  X,Y,Z= 0.70500E-001 0.17550       0.0000     

 NODE       209  KCS=      0  X,Y,Z= 0.70500E-001 0.18550       0.0000     

 NODE       210  KCS=      0  X,Y,Z= 0.70500E-001 0.19550       0.0000     

 NODE       211  KCS=      0  X,Y,Z= 0.70500E-001 0.20550       0.0000     

 NODE       212  KCS=      0  X,Y,Z= 0.70500E-001 0.21550       0.0000     

 NODE       213  KCS=      0  X,Y,Z= 0.70500E-001 0.22550       0.0000     

 NODE       214  KCS=      0  X,Y,Z= 0.70500E-001 0.23550       0.0000     

 NODE       215  KCS=      0  X,Y,Z= 0.70500E-001 0.24550       0.0000     

 NODE       216  KCS=      0  X,Y,Z= 0.70500E-001 0.25550       0.0000     

 NODE       217  KCS=      0  X,Y,Z= 0.80500E-001-0.45000E-002  0.0000     

 NODE       218  KCS=      0  X,Y,Z= 0.80500E-001 0.55000E-002  0.0000     

 NODE       219  KCS=      0  X,Y,Z= 0.80500E-001 0.15500E-001  0.0000     

 NODE       220  KCS=      0  X,Y,Z= 0.80500E-001 0.25500E-001  0.0000     

 NODE       221  KCS=      0  X,Y,Z= 0.80500E-001 0.35500E-001  0.0000     

 NODE       222  KCS=      0  X,Y,Z= 0.80500E-001 0.45500E-001  0.0000     

 NODE       223  KCS=      0  X,Y,Z= 0.80500E-001 0.55500E-001  0.0000     

 NODE       224  KCS=      0  X,Y,Z= 0.80500E-001 0.65500E-001  0.0000     

 NODE       225  KCS=      0  X,Y,Z= 0.80500E-001 0.75500E-001  0.0000     

 NODE       226  KCS=      0  X,Y,Z= 0.80500E-001 0.85500E-001  0.0000     

 NODE       227  KCS=      0  X,Y,Z= 0.80500E-001 0.95500E-001  0.0000     

 NODE       228  KCS=      0  X,Y,Z= 0.80500E-001 0.10550       0.0000     

 NODE       229  KCS=      0  X,Y,Z= 0.80500E-001 0.11550       0.0000     

 NODE       230  KCS=      0  X,Y,Z= 0.80500E-001 0.12550       0.0000     

 NODE       231  KCS=      0  X,Y,Z= 0.80500E-001 0.13550       0.0000     

 NODE       232  KCS=      0  X,Y,Z= 0.80500E-001 0.14550       0.0000     

 NODE       233  KCS=      0  X,Y,Z= 0.80500E-001 0.15550       0.0000     

 NODE       234  KCS=      0  X,Y,Z= 0.80500E-001 0.16550       0.0000     

 NODE       235  KCS=      0  X,Y,Z= 0.80500E-001 0.17550       0.0000     

 NODE       236  KCS=      0  X,Y,Z= 0.80500E-001 0.18550       0.0000     

 NODE       237  KCS=      0  X,Y,Z= 0.80500E-001 0.19550       0.0000     

 NODE       238  KCS=      0  X,Y,Z= 0.80500E-001 0.20550       0.0000     

 NODE       239  KCS=      0  X,Y,Z= 0.80500E-001 0.21550       0.0000     

 NODE       240  KCS=      0  X,Y,Z= 0.80500E-001 0.22550       0.0000     

 NODE       241  KCS=      0  X,Y,Z= 0.80500E-001 0.23550       0.0000     

 NODE       242  KCS=      0  X,Y,Z= 0.80500E-001 0.24550       0.0000     

 NODE       243  KCS=      0  X,Y,Z= 0.80500E-001 0.25550       0.0000     

 NODE       244  KCS=      0  X,Y,Z= 0.90500E-001-0.45000E-002  0.0000     

 NODE       245  KCS=      0  X,Y,Z= 0.90500E-001 0.55000E-002  0.0000     

 NODE       246  KCS=      0  X,Y,Z= 0.90500E-001 0.15500E-001  0.0000     

 NODE       247  KCS=      0  X,Y,Z= 0.90500E-001 0.25500E-001  0.0000     

 NODE       248  KCS=      0  X,Y,Z= 0.90500E-001 0.35500E-001  0.0000     

 NODE       249  KCS=      0  X,Y,Z= 0.90500E-001 0.45500E-001  0.0000     

 NODE       250  KCS=      0  X,Y,Z= 0.90500E-001 0.55500E-001  0.0000     

 NODE       251  KCS=      0  X,Y,Z= 0.90500E-001 0.65500E-001  0.0000     

 NODE       252  KCS=      0  X,Y,Z= 0.90500E-001 0.75500E-001  0.0000     

 NODE       253  KCS=      0  X,Y,Z= 0.90500E-001 0.85500E-001  0.0000     

 NODE       254  KCS=      0  X,Y,Z= 0.90500E-001 0.95500E-001  0.0000     

 NODE       255  KCS=      0  X,Y,Z= 0.90500E-001 0.10550       0.0000     

 NODE       256  KCS=      0  X,Y,Z= 0.90500E-001 0.11550       0.0000     

 NODE       257  KCS=      0  X,Y,Z= 0.90500E-001 0.12550       0.0000     

 NODE       258  KCS=      0  X,Y,Z= 0.90500E-001 0.13550       0.0000     

 NODE       259  KCS=      0  X,Y,Z= 0.90500E-001 0.14550       0.0000     

 NODE       260  KCS=      0  X,Y,Z= 0.90500E-001 0.15550       0.0000     

 NODE       261  KCS=      0  X,Y,Z= 0.90500E-001 0.16550       0.0000     

 NODE       262  KCS=      0  X,Y,Z= 0.90500E-001 0.17550       0.0000     

 NODE       263  KCS=      0  X,Y,Z= 0.90500E-001 0.18550       0.0000     

 NODE       264  KCS=      0  X,Y,Z= 0.90500E-001 0.19550       0.0000     

 NODE       265  KCS=      0  X,Y,Z= 0.90500E-001 0.20550       0.0000     

 NODE       266  KCS=      0  X,Y,Z= 0.90500E-001 0.21550       0.0000     

 NODE       267  KCS=      0  X,Y,Z= 0.90500E-001 0.22550       0.0000     

 NODE       268  KCS=      0  X,Y,Z= 0.90500E-001 0.23550       0.0000     

 NODE       269  KCS=      0  X,Y,Z= 0.90500E-001 0.24550       0.0000     

 NODE       270  KCS=      0  X,Y,Z= 0.90500E-001 0.25550       0.0000     

 NODE       271  KCS=      0  X,Y,Z= 0.10050     -0.45000E-002  0.0000     

 NODE       272  KCS=      0  X,Y,Z= 0.10050      0.55000E-002  0.0000     

 NODE       273  KCS=      0  X,Y,Z= 0.10050      0.15500E-001  0.0000     

 NODE       274  KCS=      0  X,Y,Z= 0.10050      0.25500E-001  0.0000     

 NODE       275  KCS=      0  X,Y,Z= 0.10050      0.35500E-001  0.0000     

 NODE       276  KCS=      0  X,Y,Z= 0.10050      0.45500E-001  0.0000     

 NODE       277  KCS=      0  X,Y,Z= 0.10050      0.55500E-001  0.0000     

 NODE       278  KCS=      0  X,Y,Z= 0.10050      0.65500E-001  0.0000     

 NODE       279  KCS=      0  X,Y,Z= 0.10050      0.75500E-001  0.0000     

 NODE       280  KCS=      0  X,Y,Z= 0.10050      0.85500E-001  0.0000     

 NODE       281  KCS=      0  X,Y,Z= 0.10050      0.95500E-001  0.0000     

 NODE       282  KCS=      0  X,Y,Z= 0.10050      0.10550       0.0000     

 NODE       283  KCS=      0  X,Y,Z= 0.10050      0.11550       0.0000     

 NODE       284  KCS=      0  X,Y,Z= 0.10050      0.12550       0.0000     

 NODE       285  KCS=      0  X,Y,Z= 0.10050      0.13550       0.0000     

 NODE       286  KCS=      0  X,Y,Z= 0.10050      0.14550       0.0000     

 NODE       287  KCS=      0  X,Y,Z= 0.10050      0.15550       0.0000     

 NODE       288  KCS=      0  X,Y,Z= 0.10050      0.16550       0.0000     

 NODE       289  KCS=      0  X,Y,Z= 0.10050      0.17550       0.0000     

 NODE       290  KCS=      0  X,Y,Z= 0.10050      0.18550       0.0000     

 NODE       291  KCS=      0  X,Y,Z= 0.10050      0.19550       0.0000     

 NODE       292  KCS=      0  X,Y,Z= 0.10050      0.20550       0.0000     

 NODE       293  KCS=      0  X,Y,Z= 0.10050      0.21550       0.0000     

 NODE       294  KCS=      0  X,Y,Z= 0.10050      0.22550       0.0000     

 NODE       295  KCS=      0  X,Y,Z= 0.10050      0.23550       0.0000     

 NODE       296  KCS=      0  X,Y,Z= 0.10050      0.24550       0.0000     

 NODE       297  KCS=      0  X,Y,Z= 0.10050      0.25550       0.0000     

 NODE       298  KCS=      0  X,Y,Z= 0.11050     -0.45000E-002  0.0000     

 NODE       299  KCS=      0  X,Y,Z= 0.11050      0.55000E-002  0.0000     

 NODE       300  KCS=      0  X,Y,Z= 0.11050      0.15500E-001  0.0000     

 NODE       301  KCS=      0  X,Y,Z= 0.11050      0.25500E-001  0.0000     

 NODE       302  KCS=      0  X,Y,Z= 0.11050      0.35500E-001  0.0000     

 NODE       303  KCS=      0  X,Y,Z= 0.11050      0.45500E-001  0.0000     

 NODE       304  KCS=      0  X,Y,Z= 0.11050      0.55500E-001  0.0000     

 NODE       305  KCS=      0  X,Y,Z= 0.11050      0.65500E-001  0.0000     

 NODE       306  KCS=      0  X,Y,Z= 0.11050      0.75500E-001  0.0000     

 NODE       307  KCS=      0  X,Y,Z= 0.11050      0.85500E-001  0.0000     

 NODE       308  KCS=      0  X,Y,Z= 0.11050      0.95500E-001  0.0000     

 NODE       309  KCS=      0  X,Y,Z= 0.11050      0.10550       0.0000     

 NODE       310  KCS=      0  X,Y,Z= 0.11050      0.11550       0.0000     

 NODE       311  KCS=      0  X,Y,Z= 0.11050      0.12550       0.0000     

 NODE       312  KCS=      0  X,Y,Z= 0.11050      0.13550       0.0000     

 NODE       313  KCS=      0  X,Y,Z= 0.11050      0.14550       0.0000     

 NODE       314  KCS=      0  X,Y,Z= 0.11050      0.15550       0.0000     

 NODE       315  KCS=      0  X,Y,Z= 0.11050      0.16550       0.0000     

 NODE       316  KCS=      0  X,Y,Z= 0.11050      0.17550       0.0000     

 NODE       317  KCS=      0  X,Y,Z= 0.11050      0.18550       0.0000     

 NODE       318  KCS=      0  X,Y,Z= 0.11050      0.19550       0.0000     

 NODE       319  KCS=      0  X,Y,Z= 0.11050      0.20550       0.0000     

 NODE       320  KCS=      0  X,Y,Z= 0.11050      0.21550       0.0000     

 NODE       321  KCS=      0  X,Y,Z= 0.11050      0.22550       0.0000     

 NODE       322  KCS=      0  X,Y,Z= 0.11050      0.23550       0.0000     

 NODE       323  KCS=      0  X,Y,Z= 0.11050      0.24550       0.0000     

 NODE       324  KCS=      0  X,Y,Z= 0.11050      0.25550       0.0000     

 NODE       325  KCS=      0  X,Y,Z= 0.12050     -0.45000E-002  0.0000     

 NODE       326  KCS=      0  X,Y,Z= 0.12050      0.55000E-002  0.0000     

 NODE       327  KCS=      0  X,Y,Z= 0.12050      0.15500E-001  0.0000     

 NODE       328  KCS=      0  X,Y,Z= 0.12050      0.25500E-001  0.0000     

 NODE       329  KCS=      0  X,Y,Z= 0.12050      0.35500E-001  0.0000     

 NODE       330  KCS=      0  X,Y,Z= 0.12050      0.45500E-001  0.0000     

 NODE       331  KCS=      0  X,Y,Z= 0.12050      0.55500E-001  0.0000     

 NODE       332  KCS=      0  X,Y,Z= 0.12050      0.65500E-001  0.0000     

 NODE       333  KCS=      0  X,Y,Z= 0.12050      0.75500E-001  0.0000     

 NODE       334  KCS=      0  X,Y,Z= 0.12050      0.85500E-001  0.0000     

 NODE       335  KCS=      0  X,Y,Z= 0.12050      0.95500E-001  0.0000     

 NODE       336  KCS=      0  X,Y,Z= 0.12050      0.10550       0.0000     

 NODE       337  KCS=      0  X,Y,Z= 0.12050      0.11550       0.0000     

 NODE       338  KCS=      0  X,Y,Z= 0.12050      0.12550       0.0000     

 NODE       339  KCS=      0  X,Y,Z= 0.12050      0.13550       0.0000     

 NODE       340  KCS=      0  X,Y,Z= 0.12050      0.14550       0.0000     

 NODE       341  KCS=      0  X,Y,Z= 0.12050      0.15550       0.0000     

 NODE       342  KCS=      0  X,Y,Z= 0.12050      0.16550       0.0000     

 NODE       343  KCS=      0  X,Y,Z= 0.12050      0.17550       0.0000     

 NODE       344  KCS=      0  X,Y,Z= 0.12050      0.18550       0.0000     

 NODE       345  KCS=      0  X,Y,Z= 0.12050      0.19550       0.0000     

 NODE       346  KCS=      0  X,Y,Z= 0.12050      0.20550       0.0000     

 NODE       347  KCS=      0  X,Y,Z= 0.12050      0.21550       0.0000     

 NODE       348  KCS=      0  X,Y,Z= 0.12050      0.22550       0.0000     

 NODE       349  KCS=      0  X,Y,Z= 0.12050      0.23550       0.0000     

 NODE       350  KCS=      0  X,Y,Z= 0.12050      0.24550       0.0000     

 NODE       351  KCS=      0  X,Y,Z= 0.12050      0.25550       0.0000     

 NODE       352  KCS=      0  X,Y,Z= 0.13050     -0.45000E-002  0.0000     

 NODE       353  KCS=      0  X,Y,Z= 0.13050      0.55000E-002  0.0000     

 NODE       354  KCS=      0  X,Y,Z= 0.13050      0.15500E-001  0.0000     

 NODE       355  KCS=      0  X,Y,Z= 0.13050      0.25500E-001  0.0000     

 NODE       356  KCS=      0  X,Y,Z= 0.13050      0.35500E-001  0.0000     

 NODE       357  KCS=      0  X,Y,Z= 0.13050      0.45500E-001  0.0000     

 NODE       358  KCS=      0  X,Y,Z= 0.13050      0.55500E-001  0.0000     

 NODE       359  KCS=      0  X,Y,Z= 0.13050      0.65500E-001  0.0000     

 NODE       360  KCS=      0  X,Y,Z= 0.13050      0.75500E-001  0.0000     

 NODE       361  KCS=      0  X,Y,Z= 0.13050      0.85500E-001  0.0000     

 NODE       362  KCS=      0  X,Y,Z= 0.13050      0.95500E-001  0.0000     

 NODE       363  KCS=      0  X,Y,Z= 0.13050      0.10550       0.0000     

 NODE       364  KCS=      0  X,Y,Z= 0.13050      0.11550       0.0000     

 NODE       365  KCS=      0  X,Y,Z= 0.13050      0.12550       0.0000     

 NODE       366  KCS=      0  X,Y,Z= 0.13050      0.13550       0.0000     

 NODE       367  KCS=      0  X,Y,Z= 0.13050      0.14550       0.0000     

 NODE       368  KCS=      0  X,Y,Z= 0.13050      0.15550       0.0000     

 NODE       369  KCS=      0  X,Y,Z= 0.13050      0.16550       0.0000     

 NODE       370  KCS=      0  X,Y,Z= 0.13050      0.17550       0.0000     

 NODE       371  KCS=      0  X,Y,Z= 0.13050      0.18550       0.0000     

 NODE       372  KCS=      0  X,Y,Z= 0.13050      0.19550       0.0000     

 NODE       373  KCS=      0  X,Y,Z= 0.13050      0.20550       0.0000     

 NODE       374  KCS=      0  X,Y,Z= 0.13050      0.21550       0.0000     

 NODE       375  KCS=      0  X,Y,Z= 0.13050      0.22550       0.0000     

 NODE       376  KCS=      0  X,Y,Z= 0.13050      0.23550       0.0000     

 NODE       377  KCS=      0  X,Y,Z= 0.13050      0.24550       0.0000     

 NODE       378  KCS=      0  X,Y,Z= 0.13050      0.25550       0.0000     

 NODE       379  KCS=      0  X,Y,Z= 0.14050     -0.45000E-002  0.0000     

 NODE       380  KCS=      0  X,Y,Z= 0.14050      0.55000E-002  0.0000     

 NODE       381  KCS=      0  X,Y,Z= 0.14050      0.15500E-001  0.0000     

 NODE       382  KCS=      0  X,Y,Z= 0.14050      0.25500E-001  0.0000     

 NODE       383  KCS=      0  X,Y,Z= 0.14050      0.35500E-001  0.0000     

 NODE       384  KCS=      0  X,Y,Z= 0.14050      0.45500E-001  0.0000     

 NODE       385  KCS=      0  X,Y,Z= 0.14050      0.55500E-001  0.0000     

 NODE       386  KCS=      0  X,Y,Z= 0.14050      0.65500E-001  0.0000     

 NODE       387  KCS=      0  X,Y,Z= 0.14050      0.75500E-001  0.0000     

 NODE       388  KCS=      0  X,Y,Z= 0.14050      0.85500E-001  0.0000     

 NODE       389  KCS=      0  X,Y,Z= 0.14050      0.95500E-001  0.0000     

 NODE       390  KCS=      0  X,Y,Z= 0.14050      0.10550       0.0000     

 NODE       391  KCS=      0  X,Y,Z= 0.14050      0.11550       0.0000     

 NODE       392  KCS=      0  X,Y,Z= 0.14050      0.12550       0.0000     

 NODE       393  KCS=      0  X,Y,Z= 0.14050      0.13550       0.0000     

 NODE       394  KCS=      0  X,Y,Z= 0.14050      0.14550       0.0000     

 NODE       395  KCS=      0  X,Y,Z= 0.14050      0.15550       0.0000     

 NODE       396  KCS=      0  X,Y,Z= 0.14050      0.16550       0.0000     

 NODE       397  KCS=      0  X,Y,Z= 0.14050      0.17550       0.0000     

 NODE       398  KCS=      0  X,Y,Z= 0.14050      0.18550       0.0000     

 NODE       399  KCS=      0  X,Y,Z= 0.14050      0.19550       0.0000     

 NODE       400  KCS=      0  X,Y,Z= 0.14050      0.20550       0.0000     

 NODE       401  KCS=      0  X,Y,Z= 0.14050      0.21550       0.0000     

 NODE       402  KCS=      0  X,Y,Z= 0.14050      0.22550       0.0000     

 NODE       403  KCS=      0  X,Y,Z= 0.14050      0.23550       0.0000     

 NODE       404  KCS=      0  X,Y,Z= 0.14050      0.24550       0.0000     

 NODE       405  KCS=      0  X,Y,Z= 0.14050      0.25550       0.0000     

 NODE       406  KCS=      0  X,Y,Z= 0.15050     -0.45000E-002  0.0000     

 NODE       407  KCS=      0  X,Y,Z= 0.15050      0.55000E-002  0.0000     

 NODE       408  KCS=      0  X,Y,Z= 0.15050      0.15500E-001  0.0000     

 NODE       409  KCS=      0  X,Y,Z= 0.15050      0.25500E-001  0.0000     

 NODE       410  KCS=      0  X,Y,Z= 0.15050      0.35500E-001  0.0000     

 NODE       411  KCS=      0  X,Y,Z= 0.15050      0.45500E-001  0.0000     

 NODE       412  KCS=      0  X,Y,Z= 0.15050      0.55500E-001  0.0000     

 NODE       413  KCS=      0  X,Y,Z= 0.15050      0.65500E-001  0.0000     

 NODE       414  KCS=      0  X,Y,Z= 0.15050      0.75500E-001  0.0000     

 NODE       415  KCS=      0  X,Y,Z= 0.15050      0.85500E-001  0.0000     

 NODE       416  KCS=      0  X,Y,Z= 0.15050      0.95500E-001  0.0000     

 NODE       417  KCS=      0  X,Y,Z= 0.15050      0.10550       0.0000     

 NODE       418  KCS=      0  X,Y,Z= 0.15050      0.11550       0.0000     

 NODE       419  KCS=      0  X,Y,Z= 0.15050      0.12550       0.0000     

 NODE       420  KCS=      0  X,Y,Z= 0.15050      0.13550       0.0000     

 NODE       421  KCS=      0  X,Y,Z= 0.15050      0.14550       0.0000     

 NODE       422  KCS=      0  X,Y,Z= 0.15050      0.15550       0.0000     

 NODE       423  KCS=      0  X,Y,Z= 0.15050      0.16550       0.0000     

 NODE       424  KCS=      0  X,Y,Z= 0.15050      0.17550       0.0000     

 NODE       425  KCS=      0  X,Y,Z= 0.15050      0.18550       0.0000     

 NODE       426  KCS=      0  X,Y,Z= 0.15050      0.19550       0.0000     

 NODE       427  KCS=      0  X,Y,Z= 0.15050      0.20550       0.0000     

 NODE       428  KCS=      0  X,Y,Z= 0.15050      0.21550       0.0000     

 NODE       429  KCS=      0  X,Y,Z= 0.15050      0.22550       0.0000     

 NODE       430  KCS=      0  X,Y,Z= 0.15050      0.23550       0.0000     

 NODE       431  KCS=      0  X,Y,Z= 0.15050      0.24550       0.0000     

 NODE       432  KCS=      0  X,Y,Z= 0.15050      0.25550       0.0000     

 NODE       433  KCS=      0  X,Y,Z= 0.16050     -0.45000E-002  0.0000     

 NODE       434  KCS=      0  X,Y,Z= 0.16050      0.55000E-002  0.0000     

 NODE       435  KCS=      0  X,Y,Z= 0.16050      0.15500E-001  0.0000     

 NODE       436  KCS=      0  X,Y,Z= 0.16050      0.25500E-001  0.0000     

 NODE       437  KCS=      0  X,Y,Z= 0.16050      0.35500E-001  0.0000     

 NODE       438  KCS=      0  X,Y,Z= 0.16050      0.45500E-001  0.0000     

 NODE       439  KCS=      0  X,Y,Z= 0.16050      0.55500E-001  0.0000     

 NODE       440  KCS=      0  X,Y,Z= 0.16050      0.65500E-001  0.0000     

 NODE       441  KCS=      0  X,Y,Z= 0.16050      0.75500E-001  0.0000     

 NODE       442  KCS=      0  X,Y,Z= 0.16050      0.85500E-001  0.0000     

 NODE       443  KCS=      0  X,Y,Z= 0.16050      0.95500E-001  0.0000     

 NODE       444  KCS=      0  X,Y,Z= 0.16050      0.10550       0.0000     

 NODE       445  KCS=      0  X,Y,Z= 0.16050      0.11550       0.0000     

 NODE       446  KCS=      0  X,Y,Z= 0.16050      0.12550       0.0000     

 NODE       447  KCS=      0  X,Y,Z= 0.16050      0.13550       0.0000     

 NODE       448  KCS=      0  X,Y,Z= 0.16050      0.14550       0.0000     

 NODE       449  KCS=      0  X,Y,Z= 0.16050      0.15550       0.0000     

 NODE       450  KCS=      0  X,Y,Z= 0.16050      0.16550       0.0000     

 NODE       451  KCS=      0  X,Y,Z= 0.16050      0.17550       0.0000     

 NODE       452  KCS=      0  X,Y,Z= 0.16050      0.18550       0.0000     

 NODE       453  KCS=      0  X,Y,Z= 0.16050      0.19550       0.0000     

 NODE       454  KCS=      0  X,Y,Z= 0.16050      0.20550       0.0000     

 NODE       455  KCS=      0  X,Y,Z= 0.16050      0.21550       0.0000     

 NODE       456  KCS=      0  X,Y,Z= 0.16050      0.22550       0.0000     

 NODE       457  KCS=      0  X,Y,Z= 0.16050      0.23550       0.0000     

 NODE       458  KCS=      0  X,Y,Z= 0.16050      0.24550       0.0000     

 NODE       459  KCS=      0  X,Y,Z= 0.16050      0.25550       0.0000     

 NODE       460  KCS=      0  X,Y,Z= 0.17050     -0.45000E-002  0.0000     

 NODE       461  KCS=      0  X,Y,Z= 0.17050      0.55000E-002  0.0000     

 NODE       462  KCS=      0  X,Y,Z= 0.17050      0.15500E-001  0.0000     

 NODE       463  KCS=      0  X,Y,Z= 0.17050      0.25500E-001  0.0000     

 NODE       464  KCS=      0  X,Y,Z= 0.17050      0.35500E-001  0.0000     

 NODE       465  KCS=      0  X,Y,Z= 0.17050      0.45500E-001  0.0000     

 NODE       466  KCS=      0  X,Y,Z= 0.17050      0.55500E-001  0.0000     

 NODE       467  KCS=      0  X,Y,Z= 0.17050      0.65500E-001  0.0000     

 NODE       468  KCS=      0  X,Y,Z= 0.17050      0.75500E-001  0.0000     

 NODE       469  KCS=      0  X,Y,Z= 0.17050      0.85500E-001  0.0000     

 NODE       470  KCS=      0  X,Y,Z= 0.17050      0.95500E-001  0.0000     

 NODE       471  KCS=      0  X,Y,Z= 0.17050      0.10550       0.0000     

 NODE       472  KCS=      0  X,Y,Z= 0.17050      0.11550       0.0000     

 NODE       473  KCS=      0  X,Y,Z= 0.17050      0.12550       0.0000     

 NODE       474  KCS=      0  X,Y,Z= 0.17050      0.13550       0.0000     

 NODE       475  KCS=      0  X,Y,Z= 0.17050      0.14550       0.0000     

 NODE       476  KCS=      0  X,Y,Z= 0.17050      0.15550       0.0000     

 NODE       477  KCS=      0  X,Y,Z= 0.17050      0.16550       0.0000     

 NODE       478  KCS=      0  X,Y,Z= 0.17050      0.17550       0.0000     

 NODE       479  KCS=      0  X,Y,Z= 0.17050      0.18550       0.0000     

 NODE       480  KCS=      0  X,Y,Z= 0.17050      0.19550       0.0000     

 NODE       481  KCS=      0  X,Y,Z= 0.17050      0.20550       0.0000     

 NODE       482  KCS=      0  X,Y,Z= 0.17050      0.21550       0.0000     

 NODE       483  KCS=      0  X,Y,Z= 0.17050      0.22550       0.0000     

 NODE       484  KCS=      0  X,Y,Z= 0.17050      0.23550       0.0000     

 NODE       485  KCS=      0  X,Y,Z= 0.17050      0.24550       0.0000     

 NODE       486  KCS=      0  X,Y,Z= 0.17050      0.25550       0.0000     

 NODE       487  KCS=      0  X,Y,Z= 0.18050     -0.45000E-002  0.0000     

 NODE       488  KCS=      0  X,Y,Z= 0.18050      0.55000E-002  0.0000     

 NODE       489  KCS=      0  X,Y,Z= 0.18050      0.15500E-001  0.0000     

 NODE       490  KCS=      0  X,Y,Z= 0.18050      0.25500E-001  0.0000     

 NODE       491  KCS=      0  X,Y,Z= 0.18050      0.35500E-001  0.0000     

 NODE       492  KCS=      0  X,Y,Z= 0.18050      0.45500E-001  0.0000     

 NODE       493  KCS=      0  X,Y,Z= 0.18050      0.55500E-001  0.0000     

 NODE       494  KCS=      0  X,Y,Z= 0.18050      0.65500E-001  0.0000     

 NODE       495  KCS=      0  X,Y,Z= 0.18050      0.75500E-001  0.0000     

 NODE       496  KCS=      0  X,Y,Z= 0.18050      0.85500E-001  0.0000     

 NODE       497  KCS=      0  X,Y,Z= 0.18050      0.95500E-001  0.0000     

 NODE       498  KCS=      0  X,Y,Z= 0.18050      0.10550       0.0000     

 NODE       499  KCS=      0  X,Y,Z= 0.18050      0.11550       0.0000     

 NODE       500  KCS=      0  X,Y,Z= 0.18050      0.12550       0.0000     

 NODE       501  KCS=      0  X,Y,Z= 0.18050      0.13550       0.0000     

 NODE       502  KCS=      0  X,Y,Z= 0.18050      0.14550       0.0000     

 NODE       503  KCS=      0  X,Y,Z= 0.18050      0.15550       0.0000     

 NODE       504  KCS=      0  X,Y,Z= 0.18050      0.16550       0.0000     

 NODE       505  KCS=      0  X,Y,Z= 0.18050      0.17550       0.0000     

 NODE       506  KCS=      0  X,Y,Z= 0.18050      0.18550       0.0000     

 NODE       507  KCS=      0  X,Y,Z= 0.18050      0.19550       0.0000     

 NODE       508  KCS=      0  X,Y,Z= 0.18050      0.20550       0.0000     

 NODE       509  KCS=      0  X,Y,Z= 0.18050      0.21550       0.0000     

 NODE       510  KCS=      0  X,Y,Z= 0.18050      0.22550       0.0000     

 NODE       511  KCS=      0  X,Y,Z= 0.18050      0.23550       0.0000     

 NODE       512  KCS=      0  X,Y,Z= 0.18050      0.24550       0.0000     

 NODE       513  KCS=      0  X,Y,Z= 0.18050      0.25550       0.0000     

 NODE       514  KCS=      0  X,Y,Z= 0.19050     -0.45000E-002  0.0000     

 NODE       515  KCS=      0  X,Y,Z= 0.19050      0.55000E-002  0.0000     

 NODE       516  KCS=      0  X,Y,Z= 0.19050      0.15500E-001  0.0000     

 NODE       517  KCS=      0  X,Y,Z= 0.19050      0.25500E-001  0.0000     

 NODE       518  KCS=      0  X,Y,Z= 0.19050      0.35500E-001  0.0000     

 NODE       519  KCS=      0  X,Y,Z= 0.19050      0.45500E-001  0.0000     

 NODE       520  KCS=      0  X,Y,Z= 0.19050      0.55500E-001  0.0000     

 NODE       521  KCS=      0  X,Y,Z= 0.19050      0.65500E-001  0.0000     

 NODE       522  KCS=      0  X,Y,Z= 0.19050      0.75500E-001  0.0000     

 NODE       523  KCS=      0  X,Y,Z= 0.19050      0.85500E-001  0.0000     

 NODE       524  KCS=      0  X,Y,Z= 0.19050      0.95500E-001  0.0000     

 NODE       525  KCS=      0  X,Y,Z= 0.19050      0.10550       0.0000     

 NODE       526  KCS=      0  X,Y,Z= 0.19050      0.11550       0.0000     

 NODE       527  KCS=      0  X,Y,Z= 0.19050      0.12550       0.0000     

 NODE       528  KCS=      0  X,Y,Z= 0.19050      0.13550       0.0000     

 NODE       529  KCS=      0  X,Y,Z= 0.19050      0.14550       0.0000     

 NODE       530  KCS=      0  X,Y,Z= 0.19050      0.15550       0.0000     

 NODE       531  KCS=      0  X,Y,Z= 0.19050      0.16550       0.0000     

 NODE       532  KCS=      0  X,Y,Z= 0.19050      0.17550       0.0000     

 NODE       533  KCS=      0  X,Y,Z= 0.19050      0.18550       0.0000     

 NODE       534  KCS=      0  X,Y,Z= 0.19050      0.19550       0.0000     

 NODE       535  KCS=      0  X,Y,Z= 0.19050      0.20550       0.0000     

 NODE       536  KCS=      0  X,Y,Z= 0.19050      0.21550       0.0000     

 NODE       537  KCS=      0  X,Y,Z= 0.19050      0.22550       0.0000     

 NODE       538  KCS=      0  X,Y,Z= 0.19050      0.23550       0.0000     

 NODE       539  KCS=      0  X,Y,Z= 0.19050      0.24550       0.0000     

 NODE       540  KCS=      0  X,Y,Z= 0.19050      0.25550       0.0000     

 NODE       541  KCS=      0  X,Y,Z= 0.20050     -0.45000E-002  0.0000     

 NODE       542  KCS=      0  X,Y,Z= 0.20050      0.55000E-002  0.0000     

 NODE       543  KCS=      0  X,Y,Z= 0.20050      0.15500E-001  0.0000     

 NODE       544  KCS=      0  X,Y,Z= 0.20050      0.25500E-001  0.0000     

 NODE       545  KCS=      0  X,Y,Z= 0.20050      0.35500E-001  0.0000     

 NODE       546  KCS=      0  X,Y,Z= 0.20050      0.45500E-001  0.0000     

 NODE       547  KCS=      0  X,Y,Z= 0.20050      0.55500E-001  0.0000     

 NODE       548  KCS=      0  X,Y,Z= 0.20050      0.65500E-001  0.0000     

 NODE       549  KCS=      0  X,Y,Z= 0.20050      0.75500E-001  0.0000     

 NODE       550  KCS=      0  X,Y,Z= 0.20050      0.85500E-001  0.0000     

 NODE       551  KCS=      0  X,Y,Z= 0.20050      0.95500E-001  0.0000     

 NODE       552  KCS=      0  X,Y,Z= 0.20050      0.10550       0.0000     

 NODE       553  KCS=      0  X,Y,Z= 0.20050      0.11550       0.0000     

 NODE       554  KCS=      0  X,Y,Z= 0.20050      0.12550       0.0000     

 NODE       555  KCS=      0  X,Y,Z= 0.20050      0.13550       0.0000     

 NODE       556  KCS=      0  X,Y,Z= 0.20050      0.14550       0.0000     

 NODE       557  KCS=      0  X,Y,Z= 0.20050      0.15550       0.0000     

 NODE       558  KCS=      0  X,Y,Z= 0.20050      0.16550       0.0000     

 NODE       559  KCS=      0  X,Y,Z= 0.20050      0.17550       0.0000     

 NODE       560  KCS=      0  X,Y,Z= 0.20050      0.18550       0.0000     

 NODE       561  KCS=      0  X,Y,Z= 0.20050      0.19550       0.0000     

 NODE       562  KCS=      0  X,Y,Z= 0.20050      0.20550       0.0000     

 NODE       563  KCS=      0  X,Y,Z= 0.20050      0.21550       0.0000     

 NODE       564  KCS=      0  X,Y,Z= 0.20050      0.22550       0.0000     

 NODE       565  KCS=      0  X,Y,Z= 0.20050      0.23550       0.0000     

 NODE       566  KCS=      0  X,Y,Z= 0.20050      0.24550       0.0000     

 NODE       567  KCS=      0  X,Y,Z= 0.20050      0.25550       0.0000     

 /INPUT FILE= elements.txt  LINE=       0

 MATERIAL         1     EX   =   17000.00      

 MATERIAL         1     PRXY =  0.3000000      

 CHARACTERS IN INTEGER FIELD    =   7
 OUTPUT DISPLAY TYPE            =   F 
 CHARACTERS PER OUTPUT FIELD    =  15
 CHARACTERS AFTER DECIMAL POINT =  10
 LINES PER PAGE                 =****
 CHARACTERS PER LINE            = 132


 ***** ROUTINE COMPLETED *****  CP =         0.444



 *****  ANSYS SOLUTION ROUTINE  *****

 /INPUT FILE= disp.txt  LINE=       0

 SPECIFIED CONSTRAINT UX   FOR SELECTED NODES         1 TO        1 BY        1
 REAL= 9.645032060E-04   IMAG=  0.00000000    

 SPECIFIED CONSTRAINT UY   FOR SELECTED NODES         1 TO        1 BY        1
 REAL=-1.437958500E-05   IMAG=  0.00000000    

 SPECIFIED CONSTRAINT UZ   FOR SELECTED NODES         1 TO        1 BY        1
 REAL=  0.00000000       IMAG=  0.00000000    

 SPECIFIED CONSTRAINT UX   FOR SELECTED NODES         2 TO        2 BY        1
 REAL= 9.032844470E-04   IMAG=  0.00000000    

 SPECIFIED CONSTRAINT UY   FOR SELECTED NODES         2 TO        2 BY        1
 REAL= 4.046094000E-06   IMAG=  0.00000000    

 SPECIFIED CONSTRAINT UZ   FOR SELECTED NODES         2 TO        2 BY        1
 REAL=  0.00000000       IMAG=  0.00000000    

 SPECIFIED CONSTRAINT UX   FOR SELECTED NODES         3 TO        3 BY        1
 REAL= 8.122102580E-04   IMAG=  0.00000000    

 SPECIFIED CONSTRAINT UY   FOR SELECTED NODES         3 TO        3 BY        1
 REAL= 2.411796900E-05   IMAG=  0.00000000    

 SPECIFIED CONSTRAINT UZ   FOR SELECTED NODES         3 TO        3 BY        1
 REAL=  0.00000000       IMAG=  0.00000000    

 SPECIFIED CONSTRAINT UX   FOR SELECTED NODES         4 TO        4 BY        1
 REAL= 6.965506280E-04   IMAG=  0.00000000    

 SPECIFIED CONSTRAINT UY   FOR SELECTED NODES         4 TO        4 BY        1
 REAL= 5.528644300E-05   IMAG=  0.00000000    

 SPECIFIED CONSTRAINT UZ   FOR SELECTED NODES         4 TO        4 BY        1
 REAL=  0.00000000       IMAG=  0.00000000    

 SPECIFIED CONSTRAINT UX   FOR SELECTED NODES         5 TO        5 BY        1
 REAL= 5.661056550E-04   IMAG=  0.00000000    

 SPECIFIED CONSTRAINT UY   FOR SELECTED NODES         5 TO        5 BY        1
 REAL= 9.742793900E-05   IMAG=  0.00000000    

 SPECIFIED CONSTRAINT UZ   FOR SELECTED NODES         5 TO        5 BY        1
 REAL=  0.00000000       IMAG=  0.00000000    

 SPECIFIED CONSTRAINT UX   FOR SELECTED NODES         6 TO        6 BY        1
 REAL= 4.315425840E-04   IMAG=  0.00000000    

 SPECIFIED CONSTRAINT UY   FOR SELECTED NODES         6 TO        6 BY        1
 REAL= 1.431397150E-04   IMAG=  0.00000000    

 SPECIFIED CONSTRAINT UZ   FOR SELECTED NODES         6 TO        6 BY        1
 REAL=  0.00000000       IMAG=  0.00000000    

 SPECIFIED CONSTRAINT UX   FOR SELECTED NODES         7 TO        7 BY        1
 REAL= 3.053674240E-04   IMAG=  0.00000000    

 SPECIFIED CONSTRAINT UY   FOR SELECTED NODES         7 TO        7 BY        1
 REAL= 1.865525070E-04   IMAG=  0.00000000    

 SPECIFIED CONSTRAINT UZ   FOR SELECTED NODES         7 TO        7 BY        1
 REAL=  0.00000000       IMAG=  0.00000000    

 SPECIFIED CONSTRAINT UX   FOR SELECTED NODES         8 TO        8 BY        1
 REAL= 1.984302180E-04   IMAG=  0.00000000    

 SPECIFIED CONSTRAINT UY   FOR SELECTED NODES         8 TO        8 BY        1
 REAL= 2.164527920E-04   IMAG=  0.00000000    

 SPECIFIED CONSTRAINT UZ   FOR SELECTED NODES         8 TO        8 BY        1
 REAL=  0.00000000       IMAG=  0.00000000    

 SPECIFIED CONSTRAINT UX   FOR SELECTED NODES         9 TO        9 BY        1
 REAL= 1.125375710E-04   IMAG=  0.00000000    

 SPECIFIED CONSTRAINT UY   FOR SELECTED NODES         9 TO        9 BY        1
 REAL= 2.218302170E-04   IMAG=  0.00000000    

 SPECIFIED CONSTRAINT UZ   FOR SELECTED NODES         9 TO        9 BY        1
 REAL=  0.00000000       IMAG=  0.00000000    

 SPECIFIED CONSTRAINT UX   FOR SELECTED NODES        10 TO       10 BY        1
 REAL= 3.697816500E-05   IMAG=  0.00000000    

 SPECIFIED CONSTRAINT UY   FOR SELECTED NODES        10 TO       10 BY        1
 REAL= 1.945330260E-04   IMAG=  0.00000000    

 SPECIFIED CONSTRAINT UZ   FOR SELECTED NODES        10 TO       10 BY        1
 REAL=  0.00000000       IMAG=  0.00000000    

 SPECIFIED CONSTRAINT UX   FOR SELECTED NODES        11 TO       11 BY        1
 REAL=-3.184304800E-05   IMAG=  0.00000000    

 SPECIFIED CONSTRAINT UY   FOR SELECTED NODES        11 TO       11 BY        1
 REAL= 1.364819510E-04   IMAG=  0.00000000    

 SPECIFIED CONSTRAINT UZ   FOR SELECTED NODES        11 TO       11 BY        1
 REAL=  0.00000000       IMAG=  0.00000000    

 SPECIFIED CONSTRAINT UX   FOR SELECTED NODES        12 TO       12 BY        1
 REAL=-8.539068400E-05   IMAG=  0.00000000    

 SPECIFIED CONSTRAINT UY   FOR SELECTED NODES        12 TO       12 BY        1
 REAL= 6.030684400E-05   IMAG=  0.00000000    

 SPECIFIED CONSTRAINT UZ   FOR SELECTED NODES        12 TO       12 BY        1
 REAL=  0.00000000       IMAG=  0.00000000    

 SPECIFIED CONSTRAINT UX   FOR SELECTED NODES        13 TO       13 BY        1
 REAL=-1.223091570E-04   IMAG=  0.00000000    

 SPECIFIED CONSTRAINT UY   FOR SELECTED NODES        13 TO       13 BY        1
 REAL=-1.868989300E-05   IMAG=  0.00000000    

 SPECIFIED CONSTRAINT UZ   FOR SELECTED NODES        13 TO       13 BY        1
 REAL=  0.00000000       IMAG=  0.00000000    

 SPECIFIED CONSTRAINT UX   FOR SELECTED NODES        14 TO       14 BY        1
 REAL=-1.486197570E-04   IMAG=  0.00000000    

 SPECIFIED CONSTRAINT UY   FOR SELECTED NODES        14 TO       14 BY        1
 REAL=-8.244086700E-05   IMAG=  0.00000000    

 SPECIFIED CONSTRAINT UZ   FOR SELECTED NODES        14 TO       14 BY        1
 REAL=  0.00000000       IMAG=  0.00000000    

 SPECIFIED CONSTRAINT UX   FOR SELECTED NODES        15 TO       15 BY        1
 REAL=-1.660329060E-04   IMAG=  0.00000000    

 SPECIFIED CONSTRAINT UY   FOR SELECTED NODES        15 TO       15 BY        1
 REAL=-1.249506530E-04   IMAG=  0.00000000    

 SPECIFIED CONSTRAINT UZ   FOR SELECTED NODES        15 TO       15 BY        1
 REAL=  0.00000000       IMAG=  0.00000000    

 SPECIFIED CONSTRAINT UX   FOR SELECTED NODES        16 TO       16 BY        1
 REAL=-1.670654250E-04   IMAG=  0.00000000    

 SPECIFIED CONSTRAINT UY   FOR SELECTED NODES        16 TO       16 BY        1
 REAL=-1.386345740E-04   IMAG=  0.00000000    

 SPECIFIED CONSTRAINT UZ   FOR SELECTED NODES        16 TO       16 BY        1
 REAL=  0.00000000       IMAG=  0.00000000    

 SPECIFIED CONSTRAINT UX   FOR SELECTED NODES        17 TO       17 BY        1
 REAL=-1.316966960E-04   IMAG=  0.00000000    

 SPECIFIED CONSTRAINT UY   FOR SELECTED NODES        17 TO       17 BY        1
 REAL=-1.322227800E-04   IMAG=  0.00000000    

 SPECIFIED CONSTRAINT UZ   FOR SELECTED NODES        17 TO       17 BY        1
 REAL=  0.00000000       IMAG=  0.00000000    

 SPECIFIED CONSTRAINT UX   FOR SELECTED NODES        18 TO       18 BY        1
 REAL=-5.601692100E-05   IMAG=  0.00000000    

 SPECIFIED CONSTRAINT UY   FOR SELECTED NODES        18 TO       18 BY        1
 REAL=-1.155389560E-04   IMAG=  0.00000000    

 SPECIFIED CONSTRAINT UZ   FOR SELECTED NODES        18 TO       18 BY        1
 REAL=  0.00000000       IMAG=  0.00000000    

 SPECIFIED CONSTRAINT UX   FOR SELECTED NODES        19 TO       19 BY        1
 REAL= 5.162325800E-05   IMAG=  0.00000000    

 SPECIFIED CONSTRAINT UY   FOR SELECTED NODES        19 TO       19 BY        1
 REAL=-9.242013200E-05   IMAG=  0.00000000    

 SPECIFIED CONSTRAINT UZ   FOR SELECTED NODES        19 TO       19 BY        1
 REAL=  0.00000000       IMAG=  0.00000000    

 SPECIFIED CONSTRAINT UX   FOR SELECTED NODES        20 TO       20 BY        1
 REAL= 1.785443020E-04   IMAG=  0.00000000    

 SPECIFIED CONSTRAINT UY   FOR SELECTED NODES        20 TO       20 BY        1
 REAL=-6.470476400E-05   IMAG=  0.00000000    

 SPECIFIED CONSTRAINT UZ   FOR SELECTED NODES        20 TO       20 BY        1
 REAL=  0.00000000       IMAG=  0.00000000    

 SPECIFIED CONSTRAINT UX   FOR SELECTED NODES        21 TO       21 BY        1
 REAL= 3.221811940E-04   IMAG=  0.00000000    

 SPECIFIED CONSTRAINT UY   FOR SELECTED NODES        21 TO       21 BY        1
 REAL=-3.666888400E-05   IMAG=  0.00000000    

 SPECIFIED CONSTRAINT UZ   FOR SELECTED NODES        21 TO       21 BY        1
 REAL=  0.00000000       IMAG=  0.00000000    

 SPECIFIED CONSTRAINT UX   FOR SELECTED NODES        22 TO       22 BY        1
 REAL= 4.784509930E-04   IMAG=  0.00000000    

 SPECIFIED CONSTRAINT UY   FOR SELECTED NODES        22 TO       22 BY        1
 REAL=-1.349213600E-05   IMAG=  0.00000000    

 SPECIFIED CONSTRAINT UZ   FOR SELECTED NODES        22 TO       22 BY        1
 REAL=  0.00000000       IMAG=  0.00000000    

 SPECIFIED CONSTRAINT UX   FOR SELECTED NODES        23 TO       23 BY        1
 REAL= 6.392802260E-04   IMAG=  0.00000000    

 SPECIFIED CONSTRAINT UY   FOR SELECTED NODES        23 TO       23 BY        1
 REAL= 2.537810000E-06   IMAG=  0.00000000    

 SPECIFIED CONSTRAINT UZ   FOR SELECTED NODES        23 TO       23 BY        1
 REAL=  0.00000000       IMAG=  0.00000000    

 SPECIFIED CONSTRAINT UX   FOR SELECTED NODES        24 TO       24 BY        1
 REAL= 7.905260230E-04   IMAG=  0.00000000    

 SPECIFIED CONSTRAINT UY   FOR SELECTED NODES        24 TO       24 BY        1
 REAL= 1.301629700E-05   IMAG=  0.00000000    

 SPECIFIED CONSTRAINT UZ   FOR SELECTED NODES        24 TO       24 BY        1
 REAL=  0.00000000       IMAG=  0.00000000    

 SPECIFIED CONSTRAINT UX   FOR SELECTED NODES        25 TO       25 BY        1
 REAL= 9.224572680E-04   IMAG=  0.00000000    

 SPECIFIED CONSTRAINT UY   FOR SELECTED NODES        25 TO       25 BY        1
 REAL= 1.975120800E-05   IMAG=  0.00000000    

 SPECIFIED CONSTRAINT UZ   FOR SELECTED NODES        25 TO       25 BY        1
 REAL=  0.00000000       IMAG=  0.00000000    

 SPECIFIED CONSTRAINT UX   FOR SELECTED NODES        26 TO       26 BY        1
 REAL= 1.026779263E-03   IMAG=  0.00000000    

 SPECIFIED CONSTRAINT UY   FOR SELECTED NODES        26 TO       26 BY        1
 REAL= 2.393051100E-05   IMAG=  0.00000000    

 SPECIFIED CONSTRAINT UZ   FOR SELECTED NODES        26 TO       26 BY        1
 REAL=  0.00000000       IMAG=  0.00000000    

 SPECIFIED CONSTRAINT UX   FOR SELECTED NODES        27 TO       27 BY        1
 REAL= 1.104628907E-03   IMAG=  0.00000000    

 SPECIFIED CONSTRAINT UY   FOR SELECTED NODES        27 TO       27 BY        1
 REAL= 3.579666800E-05   IMAG=  0.00000000    

 SPECIFIED CONSTRAINT UZ   FOR SELECTED NODES        27 TO       27 BY        1
 REAL=  0.00000000       IMAG=  0.00000000    

 SPECIFIED CONSTRAINT UX   FOR SELECTED NODES        28 TO       28 BY        1
 REAL= 9.061613580E-04   IMAG=  0.00000000    

 SPECIFIED CONSTRAINT UY   FOR SELECTED NODES        28 TO       28 BY        1
 REAL=-8.430139000E-06   IMAG=  0.00000000    

 SPECIFIED CONSTRAINT UZ   FOR SELECTED NODES        28 TO       28 BY        1
 REAL=  0.00000000       IMAG=  0.00000000    

 SPECIFIED CONSTRAINT UX   FOR SELECTED NODES        29 TO       29 BY        1
 REAL= 8.545880440E-04   IMAG=  0.00000000    

 SPECIFIED CONSTRAINT UY   FOR SELECTED NODES        29 TO       29 BY        1
 REAL= 4.976021000E-06   IMAG=  0.00000000    

 SPECIFIED CONSTRAINT UZ   FOR SELECTED NODES        29 TO       29 BY        1
 REAL=  0.00000000       IMAG=  0.00000000    

 SPECIFIED CONSTRAINT UX   FOR SELECTED NODES        30 TO       30 BY        1
 REAL= 7.610879820E-04   IMAG=  0.00000000    

 SPECIFIED CONSTRAINT UY   FOR SELECTED NODES        30 TO       30 BY        1
 REAL= 2.330311900E-05   IMAG=  0.00000000    

 SPECIFIED CONSTRAINT UZ   FOR SELECTED NODES        30 TO       30 BY        1
 REAL=  0.00000000       IMAG=  0.00000000    

 SPECIFIED CONSTRAINT UX   FOR SELECTED NODES        31 TO       31 BY        1
 REAL= 6.401794090E-04   IMAG=  0.00000000    

 SPECIFIED CONSTRAINT UY   FOR SELECTED NODES        31 TO       31 BY        1
 REAL= 5.128172900E-05   IMAG=  0.00000000    

 SPECIFIED CONSTRAINT UZ   FOR SELECTED NODES        31 TO       31 BY        1
 REAL=  0.00000000       IMAG=  0.00000000    

 SPECIFIED CONSTRAINT UX   FOR SELECTED NODES        32 TO       32 BY        1
 REAL= 5.018832900E-04   IMAG=  0.00000000    

 SPECIFIED CONSTRAINT UY   FOR SELECTED NODES        32 TO       32 BY        1
 REAL= 8.892766600E-05   IMAG=  0.00000000    

 SPECIFIED CONSTRAINT UZ   FOR SELECTED NODES        32 TO       32 BY        1
 REAL=  0.00000000       IMAG=  0.00000000    

 SPECIFIED CONSTRAINT UX   FOR SELECTED NODES        33 TO       33 BY        1
 REAL= 3.570071020E-04   IMAG=  0.00000000    

 SPECIFIED CONSTRAINT UY   FOR SELECTED NODES        33 TO       33 BY        1
 REAL= 1.310008710E-04   IMAG=  0.00000000    

 SPECIFIED CONSTRAINT UZ   FOR SELECTED NODES        33 TO       33 BY        1
 REAL=  0.00000000       IMAG=  0.00000000    

 SPECIFIED CONSTRAINT UX   FOR SELECTED NODES        34 TO       34 BY        1
 REAL= 2.158108540E-04   IMAG=  0.00000000    

 SPECIFIED CONSTRAINT UY   FOR SELECTED NODES        34 TO       34 BY        1
 REAL= 1.700834400E-04   IMAG=  0.00000000    

 SPECIFIED CONSTRAINT UZ   FOR SELECTED NODES        34 TO       34 BY        1
 REAL=  0.00000000       IMAG=  0.00000000    

 SPECIFIED CONSTRAINT UX   FOR SELECTED NODES        35 TO       35 BY        1
 REAL= 9.023194400E-05   IMAG=  0.00000000    

 SPECIFIED CONSTRAINT UY   FOR SELECTED NODES        35 TO       35 BY        1
 REAL= 1.966618900E-04   IMAG=  0.00000000    

 SPECIFIED CONSTRAINT UZ   FOR SELECTED NODES        35 TO       35 BY        1
 REAL=  0.00000000       IMAG=  0.00000000    

 SPECIFIED CONSTRAINT UX   FOR SELECTED NODES        36 TO       36 BY        1
 REAL=-1.476450700E-05   IMAG=  0.00000000    

 SPECIFIED CONSTRAINT UY   FOR SELECTED NODES        36 TO       36 BY        1
 REAL= 2.007963170E-04   IMAG=  0.00000000    

 SPECIFIED CONSTRAINT UZ   FOR SELECTED NODES        36 TO       36 BY        1
 REAL=  0.00000000       IMAG=  0.00000000    

 SPECIFIED CONSTRAINT UX   FOR SELECTED NODES        37 TO       37 BY        1
 REAL=-1.040923540E-04   IMAG=  0.00000000    

 SPECIFIED CONSTRAINT UY   FOR SELECTED NODES        37 TO       37 BY        1
 REAL= 1.738711570E-04   IMAG=  0.00000000    

 SPECIFIED CONSTRAINT UZ   FOR SELECTED NODES        37 TO       37 BY        1
 REAL=  0.00000000       IMAG=  0.00000000    

 SPECIFIED CONSTRAINT UX   FOR SELECTED NODES        38 TO       38 BY        1
 REAL=-1.897293550E-04   IMAG=  0.00000000    

 SPECIFIED CONSTRAINT UY   FOR SELECTED NODES        38 TO       38 BY        1
 REAL= 1.166576160E-04   IMAG=  0.00000000    

 SPECIFIED CONSTRAINT UZ   FOR SELECTED NODES        38 TO       38 BY        1
 REAL=  0.00000000       IMAG=  0.00000000    

 SPECIFIED CONSTRAINT UX   FOR SELECTED NODES        39 TO       39 BY        1
 REAL=-2.611087580E-04   IMAG=  0.00000000    

 SPECIFIED CONSTRAINT UY   FOR SELECTED NODES        39 TO       39 BY        1
 REAL= 4.329235400E-05   IMAG=  0.00000000    

 SPECIFIED CONSTRAINT UZ   FOR SELECTED NODES        39 TO       39 BY        1
 REAL=  0.00000000       IMAG=  0.00000000    

 SPECIFIED CONSTRAINT UX   FOR SELECTED NODES        40 TO       40 BY        1
 REAL=-3.045212620E-04   IMAG=  0.00000000    

 SPECIFIED CONSTRAINT UY   FOR SELECTED NODES        40 TO       40 BY        1
 REAL=-2.818745900E-05   IMAG=  0.00000000    

 SPECIFIED CONSTRAINT UZ   FOR SELECTED NODES        40 TO       40 BY        1
 REAL=  0.00000000       IMAG=  0.00000000    

 SPECIFIED CONSTRAINT UX   FOR SELECTED NODES        41 TO       41 BY        1
 REAL=-3.337752080E-04   IMAG=  0.00000000    

 SPECIFIED CONSTRAINT UY   FOR SELECTED NODES        41 TO       41 BY        1
 REAL=-8.835888500E-05   IMAG=  0.00000000    

 SPECIFIED CONSTRAINT UZ   FOR SELECTED NODES        41 TO       41 BY        1
 REAL=  0.00000000       IMAG=  0.00000000    

 SPECIFIED CONSTRAINT UX   FOR SELECTED NODES        42 TO       42 BY        1
 REAL=-3.447381790E-04   IMAG=  0.00000000    

 SPECIFIED CONSTRAINT UY   FOR SELECTED NODES        42 TO       42 BY        1
 REAL=-1.232323490E-04   IMAG=  0.00000000    

 SPECIFIED CONSTRAINT UZ   FOR SELECTED NODES        42 TO       42 BY        1
 REAL=  0.00000000       IMAG=  0.00000000    

 SPECIFIED CONSTRAINT UX   FOR SELECTED NODES        43 TO       43 BY        1
 REAL=-3.322183510E-04   IMAG=  0.00000000    

 SPECIFIED CONSTRAINT UY   FOR SELECTED NODES        43 TO       43 BY        1
 REAL=-1.322822870E-04   IMAG=  0.00000000    

 SPECIFIED CONSTRAINT UZ   FOR SELECTED NODES        43 TO       43 BY        1
 REAL=  0.00000000       IMAG=  0.00000000    

 SPECIFIED CONSTRAINT UX   FOR SELECTED NODES        44 TO       44 BY        1
 REAL=-2.844936150E-04   IMAG=  0.00000000    

 SPECIFIED CONSTRAINT UY   FOR SELECTED NODES        44 TO       44 BY        1
 REAL=-1.246296190E-04   IMAG=  0.00000000    

 SPECIFIED CONSTRAINT UZ   FOR SELECTED NODES        44 TO       44 BY        1
 REAL=  0.00000000       IMAG=  0.00000000    

 SPECIFIED CONSTRAINT UX   FOR SELECTED NODES        45 TO       45 BY        1
 REAL=-1.930221280E-04   IMAG=  0.00000000    

 SPECIFIED CONSTRAINT UY   FOR SELECTED NODES        45 TO       45 BY        1
 REAL=-1.108166740E-04   IMAG=  0.00000000    

 SPECIFIED CONSTRAINT UZ   FOR SELECTED NODES        45 TO       45 BY        1
 REAL=  0.00000000       IMAG=  0.00000000    

 SPECIFIED CONSTRAINT UX   FOR SELECTED NODES        46 TO       46 BY        1
 REAL=-7.476282800E-05   IMAG=  0.00000000    

 SPECIFIED CONSTRAINT UY   FOR SELECTED NODES        46 TO       46 BY        1
 REAL=-8.992606900E-05   IMAG=  0.00000000    

 SPECIFIED CONSTRAINT UZ   FOR SELECTED NODES        46 TO       46 BY        1
 REAL=  0.00000000       IMAG=  0.00000000    

 SPECIFIED CONSTRAINT UX   FOR SELECTED NODES        47 TO       47 BY        1
 REAL= 6.319370000E-05   IMAG=  0.00000000    

 SPECIFIED CONSTRAINT UY   FOR SELECTED NODES        47 TO       47 BY        1
 REAL=-6.398553700E-05   IMAG=  0.00000000    

 SPECIFIED CONSTRAINT UZ   FOR SELECTED NODES        47 TO       47 BY        1
 REAL=  0.00000000       IMAG=  0.00000000    

 SPECIFIED CONSTRAINT UX   FOR SELECTED NODES        48 TO       48 BY        1
 REAL= 2.191972830E-04   IMAG=  0.00000000    

 SPECIFIED CONSTRAINT UY   FOR SELECTED NODES        48 TO       48 BY        1
 REAL=-3.693401300E-05   IMAG=  0.00000000    

 SPECIFIED CONSTRAINT UZ   FOR SELECTED NODES        48 TO       48 BY        1
 REAL=  0.00000000       IMAG=  0.00000000    

 SPECIFIED CONSTRAINT UX   FOR SELECTED NODES        49 TO       49 BY        1
 REAL= 3.892299230E-04   IMAG=  0.00000000    

 SPECIFIED CONSTRAINT UY   FOR SELECTED NODES        49 TO       49 BY        1
 REAL=-1.558360600E-05   IMAG=  0.00000000    

 SPECIFIED CONSTRAINT UZ   FOR SELECTED NODES        49 TO       49 BY        1
 REAL=  0.00000000       IMAG=  0.00000000    

 SPECIFIED CONSTRAINT UX   FOR SELECTED NODES        50 TO       50 BY        1
 REAL= 5.600231790E-04   IMAG=  0.00000000    

 SPECIFIED CONSTRAINT UY   FOR SELECTED NODES        50 TO       50 BY        1
 REAL=-9.511600000E-08   IMAG=  0.00000000    

 SPECIFIED CONSTRAINT UZ   FOR SELECTED NODES        50 TO       50 BY        1
 REAL=  0.00000000       IMAG=  0.00000000    

 SPECIFIED CONSTRAINT UX   FOR SELECTED NODES        51 TO       51 BY        1
 REAL= 7.188293410E-04   IMAG=  0.00000000    

 SPECIFIED CONSTRAINT UY   FOR SELECTED NODES        51 TO       51 BY        1
 REAL= 9.882796000E-06   IMAG=  0.00000000    

 SPECIFIED CONSTRAINT UZ   FOR SELECTED NODES        51 TO       51 BY        1
 REAL=  0.00000000       IMAG=  0.00000000    

 SPECIFIED CONSTRAINT UX   FOR SELECTED NODES        52 TO       52 BY        1
 REAL= 8.557519620E-04   IMAG=  0.00000000    

 SPECIFIED CONSTRAINT UY   FOR SELECTED NODES        52 TO       52 BY        1
 REAL= 1.580566400E-05   IMAG=  0.00000000    

 SPECIFIED CONSTRAINT UZ   FOR SELECTED NODES        52 TO       52 BY        1
 REAL=  0.00000000       IMAG=  0.00000000    

 SPECIFIED CONSTRAINT UX   FOR SELECTED NODES        53 TO       53 BY        1
 REAL= 9.623029870E-04   IMAG=  0.00000000    

 SPECIFIED CONSTRAINT UY   FOR SELECTED NODES        53 TO       53 BY        1
 REAL= 1.942544700E-05   IMAG=  0.00000000    

 SPECIFIED CONSTRAINT UZ   FOR SELECTED NODES        53 TO       53 BY        1
 REAL=  0.00000000       IMAG=  0.00000000    

 SPECIFIED CONSTRAINT UX   FOR SELECTED NODES        54 TO       54 BY        1
 REAL= 1.024474687E-03   IMAG=  0.00000000    

 SPECIFIED CONSTRAINT UY   FOR SELECTED NODES        54 TO       54 BY        1
 REAL= 2.692161400E-05   IMAG=  0.00000000    

 SPECIFIED CONSTRAINT UZ   FOR SELECTED NODES        54 TO       54 BY        1
 REAL=  0.00000000       IMAG=  0.00000000    

 SPECIFIED CONSTRAINT UX   FOR SELECTED NODES        55 TO       55 BY        1
 REAL= 8.147890630E-04   IMAG=  0.00000000    

 SPECIFIED CONSTRAINT UY   FOR SELECTED NODES        55 TO       55 BY        1
 REAL=-1.036738400E-05   IMAG=  0.00000000    

 SPECIFIED CONSTRAINT UZ   FOR SELECTED NODES        55 TO       55 BY        1
 REAL=  0.00000000       IMAG=  0.00000000    

 SPECIFIED CONSTRAINT UX   FOR SELECTED NODES        56 TO       56 BY        1
 REAL= 7.654316970E-04   IMAG=  0.00000000    

 SPECIFIED CONSTRAINT UY   FOR SELECTED NODES        56 TO       56 BY        1
 REAL= 1.321879000E-06   IMAG=  0.00000000    

 SPECIFIED CONSTRAINT UZ   FOR SELECTED NODES        56 TO       56 BY        1
 REAL=  0.00000000       IMAG=  0.00000000    

 SPECIFIED CONSTRAINT UX   FOR SELECTED NODES        57 TO       57 BY        1
 REAL= 6.663253400E-04   IMAG=  0.00000000    

 SPECIFIED CONSTRAINT UY   FOR SELECTED NODES        57 TO       57 BY        1
 REAL= 1.590019700E-05   IMAG=  0.00000000    

 SPECIFIED CONSTRAINT UZ   FOR SELECTED NODES        57 TO       57 BY        1
 REAL=  0.00000000       IMAG=  0.00000000    

 SPECIFIED CONSTRAINT UX   FOR SELECTED NODES        58 TO       58 BY        1
 REAL= 5.312882700E-04   IMAG=  0.00000000    

 SPECIFIED CONSTRAINT UY   FOR SELECTED NODES        58 TO       58 BY        1
 REAL= 3.828354100E-05   IMAG=  0.00000000    

 SPECIFIED CONSTRAINT UZ   FOR SELECTED NODES        58 TO       58 BY        1
 REAL=  0.00000000       IMAG=  0.00000000    

 SPECIFIED CONSTRAINT UX   FOR SELECTED NODES        59 TO       59 BY        1
 REAL= 3.724193380E-04   IMAG=  0.00000000    

 SPECIFIED CONSTRAINT UY   FOR SELECTED NODES        59 TO       59 BY        1
 REAL= 6.955888000E-05   IMAG=  0.00000000    

 SPECIFIED CONSTRAINT UZ   FOR SELECTED NODES        59 TO       59 BY        1
 REAL=  0.00000000       IMAG=  0.00000000    

 SPECIFIED CONSTRAINT UX   FOR SELECTED NODES        60 TO       60 BY        1
 REAL= 2.018321380E-04   IMAG=  0.00000000    

 SPECIFIED CONSTRAINT UY   FOR SELECTED NODES        60 TO       60 BY        1
 REAL= 1.069218270E-04   IMAG=  0.00000000    

 SPECIFIED CONSTRAINT UZ   FOR SELECTED NODES        60 TO       60 BY        1
 REAL=  0.00000000       IMAG=  0.00000000    

 SPECIFIED CONSTRAINT UX   FOR SELECTED NODES        61 TO       61 BY        1
 REAL= 2.959498400E-05   IMAG=  0.00000000    

 SPECIFIED CONSTRAINT UY   FOR SELECTED NODES        61 TO       61 BY        1
 REAL= 1.436426900E-04   IMAG=  0.00000000    

 SPECIFIED CONSTRAINT UZ   FOR SELECTED NODES        61 TO       61 BY        1
 REAL=  0.00000000       IMAG=  0.00000000    

 SPECIFIED CONSTRAINT UX   FOR SELECTED NODES        62 TO       62 BY        1
 REAL=-1.401118440E-04   IMAG=  0.00000000    

 SPECIFIED CONSTRAINT UY   FOR SELECTED NODES        62 TO       62 BY        1
 REAL= 1.649868680E-04   IMAG=  0.00000000    

 SPECIFIED CONSTRAINT UZ   FOR SELECTED NODES        62 TO       62 BY        1
 REAL=  0.00000000       IMAG=  0.00000000    

 SPECIFIED CONSTRAINT UX   FOR SELECTED NODES        63 TO       63 BY        1
 REAL=-2.863157790E-04   IMAG=  0.00000000    

 SPECIFIED CONSTRAINT UY   FOR SELECTED NODES        63 TO       63 BY        1
 REAL= 1.684355960E-04   IMAG=  0.00000000    

 SPECIFIED CONSTRAINT UZ   FOR SELECTED NODES        63 TO       63 BY        1
 REAL=  0.00000000       IMAG=  0.00000000    

 SPECIFIED CONSTRAINT UX   FOR SELECTED NODES        64 TO       64 BY        1
 REAL=-4.104008770E-04   IMAG=  0.00000000    

 SPECIFIED CONSTRAINT UY   FOR SELECTED NODES        64 TO       64 BY        1
 REAL= 1.427687990E-04   IMAG=  0.00000000    

 SPECIFIED CONSTRAINT UZ   FOR SELECTED NODES        64 TO       64 BY        1
 REAL=  0.00000000       IMAG=  0.00000000    

 SPECIFIED CONSTRAINT UX   FOR SELECTED NODES        65 TO       65 BY        1
 REAL=-5.231999540E-04   IMAG=  0.00000000    

 SPECIFIED CONSTRAINT UY   FOR SELECTED NODES        65 TO       65 BY        1
 REAL= 7.951388600E-05   IMAG=  0.00000000    

 SPECIFIED CONSTRAINT UZ   FOR SELECTED NODES        65 TO       65 BY        1
 REAL=  0.00000000       IMAG=  0.00000000    

[...]
 REAL=-3.342539680E-04   IMAG=  0.00000000    

 SPECIFIED CONSTRAINT UZ   FOR SELECTED NODES       527 TO      527 BY        1
 REAL=  0.00000000       IMAG=  0.00000000    

 SPECIFIED CONSTRAINT UX   FOR SELECTED NODES       528 TO      528 BY        1
 REAL= 4.821777760E-04   IMAG=  0.00000000    

 SPECIFIED CONSTRAINT UY   FOR SELECTED NODES       528 TO      528 BY        1
 REAL=-2.956376020E-04   IMAG=  0.00000000    

 SPECIFIED CONSTRAINT UZ   FOR SELECTED NODES       528 TO      528 BY        1
 REAL=  0.00000000       IMAG=  0.00000000    

 SPECIFIED CONSTRAINT UX   FOR SELECTED NODES       529 TO      529 BY        1
 REAL= 6.046338740E-04   IMAG=  0.00000000    

 SPECIFIED CONSTRAINT UY   FOR SELECTED NODES       529 TO      529 BY        1
 REAL=-2.686231150E-04   IMAG=  0.00000000    

 SPECIFIED CONSTRAINT UZ   FOR SELECTED NODES       529 TO      529 BY        1
 REAL=  0.00000000       IMAG=  0.00000000    

 SPECIFIED CONSTRAINT UX   FOR SELECTED NODES       530 TO      530 BY        1
 REAL= 6.318906640E-04   IMAG=  0.00000000    

 SPECIFIED CONSTRAINT UY   FOR SELECTED NODES       530 TO      530 BY        1
 REAL=-2.700853620E-04   IMAG=  0.00000000    

 SPECIFIED CONSTRAINT UZ   FOR SELECTED NODES       530 TO      530 BY        1
 REAL=  0.00000000       IMAG=  0.00000000    

 SPECIFIED CONSTRAINT UX   FOR SELECTED NODES       531 TO      531 BY        1
 REAL= 6.769979910E-04   IMAG=  0.00000000    

 SPECIFIED CONSTRAINT UY   FOR SELECTED NODES       531 TO      531 BY        1
 REAL=-2.530696350E-04   IMAG=  0.00000000    

 SPECIFIED CONSTRAINT UZ   FOR SELECTED NODES       531 TO      531 BY        1
 REAL=  0.00000000       IMAG=  0.00000000    

 SPECIFIED CONSTRAINT UX   FOR SELECTED NODES       532 TO      532 BY        1
 REAL= 7.594179690E-04   IMAG=  0.00000000    

 SPECIFIED CONSTRAINT UY   FOR SELECTED NODES       532 TO      532 BY        1
 REAL=-2.163172440E-04   IMAG=  0.00000000    

 SPECIFIED CONSTRAINT UZ   FOR SELECTED NODES       532 TO      532 BY        1
 REAL=  0.00000000       IMAG=  0.00000000    

 SPECIFIED CONSTRAINT UX   FOR SELECTED NODES       533 TO      533 BY        1
 REAL= 7.789830970E-04   IMAG=  0.00000000    

 SPECIFIED CONSTRAINT UY   FOR SELECTED NODES       533 TO      533 BY        1
 REAL=-1.922436890E-04   IMAG=  0.00000000    

 SPECIFIED CONSTRAINT UZ   FOR SELECTED NODES       533 TO      533 BY        1
 REAL=  0.00000000       IMAG=  0.00000000    

 SPECIFIED CONSTRAINT UX   FOR SELECTED NODES       534 TO      534 BY        1
 REAL= 7.104804810E-04   IMAG=  0.00000000    

 SPECIFIED CONSTRAINT UY   FOR SELECTED NODES       534 TO      534 BY        1
 REAL=-1.823008240E-04   IMAG=  0.00000000    

 SPECIFIED CONSTRAINT UZ   FOR SELECTED NODES       534 TO      534 BY        1
 REAL=  0.00000000       IMAG=  0.00000000    

 SPECIFIED CONSTRAINT UX   FOR SELECTED NODES       535 TO      535 BY        1
 REAL= 6.323407870E-04   IMAG=  0.00000000    

 SPECIFIED CONSTRAINT UY   FOR SELECTED NODES       535 TO      535 BY        1
 REAL=-1.718130450E-04   IMAG=  0.00000000    

 SPECIFIED CONSTRAINT UZ   FOR SELECTED NODES       535 TO      535 BY        1
 REAL=  0.00000000       IMAG=  0.00000000    

 SPECIFIED CONSTRAINT UX   FOR SELECTED NODES       536 TO      536 BY        1
 REAL= 5.937495560E-04   IMAG=  0.00000000    

 SPECIFIED CONSTRAINT UY   FOR SELECTED NODES       536 TO      536 BY        1
 REAL=-1.515352660E-04   IMAG=  0.00000000    

 SPECIFIED CONSTRAINT UZ   FOR SELECTED NODES       536 TO      536 BY        1
 REAL=  0.00000000       IMAG=  0.00000000    

 SPECIFIED CONSTRAINT UX   FOR SELECTED NODES       537 TO      537 BY        1
 REAL= 5.931266860E-04   IMAG=  0.00000000    

 SPECIFIED CONSTRAINT UY   FOR SELECTED NODES       537 TO      537 BY        1
 REAL=-1.313710680E-04   IMAG=  0.00000000    

 SPECIFIED CONSTRAINT UZ   FOR SELECTED NODES       537 TO      537 BY        1
 REAL=  0.00000000       IMAG=  0.00000000    

 SPECIFIED CONSTRAINT UX   FOR SELECTED NODES       538 TO      538 BY        1
 REAL= 6.230719740E-04   IMAG=  0.00000000    

 SPECIFIED CONSTRAINT UY   FOR SELECTED NODES       538 TO      538 BY        1
 REAL=-1.138087990E-04   IMAG=  0.00000000    

 SPECIFIED CONSTRAINT UZ   FOR SELECTED NODES       538 TO      538 BY        1
 REAL=  0.00000000       IMAG=  0.00000000    

 SPECIFIED CONSTRAINT UX   FOR SELECTED NODES       539 TO      539 BY        1
 REAL= 6.702103690E-04   IMAG=  0.00000000    

 SPECIFIED CONSTRAINT UY   FOR SELECTED NODES       539 TO      539 BY        1
 REAL=-1.016829180E-04   IMAG=  0.00000000    

 SPECIFIED CONSTRAINT UZ   FOR SELECTED NODES       539 TO      539 BY        1
 REAL=  0.00000000       IMAG=  0.00000000    

 SPECIFIED CONSTRAINT UX   FOR SELECTED NODES       540 TO      540 BY        1
 REAL= 7.230271090E-04   IMAG=  0.00000000    

 SPECIFIED CONSTRAINT UY   FOR SELECTED NODES       540 TO      540 BY        1
 REAL=-1.087971490E-04   IMAG=  0.00000000    

 SPECIFIED CONSTRAINT UZ   FOR SELECTED NODES       540 TO      540 BY        1
 REAL=  0.00000000       IMAG=  0.00000000    

 SPECIFIED CONSTRAINT UX   FOR SELECTED NODES       541 TO      541 BY        1
 REAL= 6.771341560E-04   IMAG=  0.00000000    

 SPECIFIED CONSTRAINT UY   FOR SELECTED NODES       541 TO      541 BY        1
 REAL= 4.253574000E-06   IMAG=  0.00000000    

 SPECIFIED CONSTRAINT UZ   FOR SELECTED NODES       541 TO      541 BY        1
 REAL=  0.00000000       IMAG=  0.00000000    

 SPECIFIED CONSTRAINT UX   FOR SELECTED NODES       542 TO      542 BY        1
 REAL= 6.080835130E-04   IMAG=  0.00000000    

 SPECIFIED CONSTRAINT UY   FOR SELECTED NODES       542 TO      542 BY        1
 REAL=-6.911100000E-07   IMAG=  0.00000000    

 SPECIFIED CONSTRAINT UZ   FOR SELECTED NODES       542 TO      542 BY        1
 REAL=  0.00000000       IMAG=  0.00000000    

 SPECIFIED CONSTRAINT UX   FOR SELECTED NODES       543 TO      543 BY        1
 REAL= 5.685247270E-04   IMAG=  0.00000000    

 SPECIFIED CONSTRAINT UY   FOR SELECTED NODES       543 TO      543 BY        1
 REAL= 8.076594000E-06   IMAG=  0.00000000    

 SPECIFIED CONSTRAINT UZ   FOR SELECTED NODES       543 TO      543 BY        1
 REAL=  0.00000000       IMAG=  0.00000000    

 SPECIFIED CONSTRAINT UX   FOR SELECTED NODES       544 TO      544 BY        1
 REAL= 5.408389180E-04   IMAG=  0.00000000    

 SPECIFIED CONSTRAINT UY   FOR SELECTED NODES       544 TO      544 BY        1
 REAL= 1.669537600E-05   IMAG=  0.00000000    

 SPECIFIED CONSTRAINT UZ   FOR SELECTED NODES       544 TO      544 BY        1
 REAL=  0.00000000       IMAG=  0.00000000    

 SPECIFIED CONSTRAINT UX   FOR SELECTED NODES       545 TO      545 BY        1
 REAL= 5.328687440E-04   IMAG=  0.00000000    

 SPECIFIED CONSTRAINT UY   FOR SELECTED NODES       545 TO      545 BY        1
 REAL= 1.647637700E-05   IMAG=  0.00000000    

 SPECIFIED CONSTRAINT UZ   FOR SELECTED NODES       545 TO      545 BY        1
 REAL=  0.00000000       IMAG=  0.00000000    

 SPECIFIED CONSTRAINT UX   FOR SELECTED NODES       546 TO      546 BY        1
 REAL= 5.501024960E-04   IMAG=  0.00000000    

 SPECIFIED CONSTRAINT UY   FOR SELECTED NODES       546 TO      546 BY        1
 REAL=-4.421700000E-08   IMAG=  0.00000000    

 SPECIFIED CONSTRAINT UZ   FOR SELECTED NODES       546 TO      546 BY        1
 REAL=  0.00000000       IMAG=  0.00000000    

 SPECIFIED CONSTRAINT UX   FOR SELECTED NODES       547 TO      547 BY        1
 REAL= 5.904093100E-04   IMAG=  0.00000000    

 SPECIFIED CONSTRAINT UY   FOR SELECTED NODES       547 TO      547 BY        1
 REAL=-3.965522000E-05   IMAG=  0.00000000    

 SPECIFIED CONSTRAINT UZ   FOR SELECTED NODES       547 TO      547 BY        1
 REAL=  0.00000000       IMAG=  0.00000000    

 SPECIFIED CONSTRAINT UX   FOR SELECTED NODES       548 TO      548 BY        1
 REAL= 6.457625140E-04   IMAG=  0.00000000    

 SPECIFIED CONSTRAINT UY   FOR SELECTED NODES       548 TO      548 BY        1
 REAL=-1.058379710E-04   IMAG=  0.00000000    

 SPECIFIED CONSTRAINT UZ   FOR SELECTED NODES       548 TO      548 BY        1
 REAL=  0.00000000       IMAG=  0.00000000    

 SPECIFIED CONSTRAINT UX   FOR SELECTED NODES       549 TO      549 BY        1
 REAL= 6.997338380E-04   IMAG=  0.00000000    

 SPECIFIED CONSTRAINT UY   FOR SELECTED NODES       549 TO      549 BY        1
 REAL=-1.918368610E-04   IMAG=  0.00000000    

 SPECIFIED CONSTRAINT UZ   FOR SELECTED NODES       549 TO      549 BY        1
 REAL=  0.00000000       IMAG=  0.00000000    

 SPECIFIED CONSTRAINT UX   FOR SELECTED NODES       550 TO      550 BY        1
 REAL= 7.206910370E-04   IMAG=  0.00000000    

 SPECIFIED CONSTRAINT UY   FOR SELECTED NODES       550 TO      550 BY        1
 REAL=-2.754363360E-04   IMAG=  0.00000000    

 SPECIFIED CONSTRAINT UZ   FOR SELECTED NODES       550 TO      550 BY        1
 REAL=  0.00000000       IMAG=  0.00000000    

 SPECIFIED CONSTRAINT UX   FOR SELECTED NODES       551 TO      551 BY        1
 REAL= 6.967562710E-04   IMAG=  0.00000000    

 SPECIFIED CONSTRAINT UY   FOR SELECTED NODES       551 TO      551 BY        1
 REAL=-3.374118090E-04   IMAG=  0.00000000    

 SPECIFIED CONSTRAINT UZ   FOR SELECTED NODES       551 TO      551 BY        1
 REAL=  0.00000000       IMAG=  0.00000000    

 SPECIFIED CONSTRAINT UX   FOR SELECTED NODES       552 TO      552 BY        1
 REAL= 6.775174780E-04   IMAG=  0.00000000    

 SPECIFIED CONSTRAINT UY   FOR SELECTED NODES       552 TO      552 BY        1
 REAL=-3.664501990E-04   IMAG=  0.00000000    

 SPECIFIED CONSTRAINT UZ   FOR SELECTED NODES       552 TO      552 BY        1
 REAL=  0.00000000       IMAG=  0.00000000    

 SPECIFIED CONSTRAINT UX   FOR SELECTED NODES       553 TO      553 BY        1
 REAL= 7.780044830E-04   IMAG=  0.00000000    

 SPECIFIED CONSTRAINT UY   FOR SELECTED NODES       553 TO      553 BY        1
 REAL=-3.662143320E-04   IMAG=  0.00000000    

 SPECIFIED CONSTRAINT UZ   FOR SELECTED NODES       553 TO      553 BY        1
 REAL=  0.00000000       IMAG=  0.00000000    

 SPECIFIED CONSTRAINT UX   FOR SELECTED NODES       554 TO      554 BY        1
 REAL= 1.135475949E-03   IMAG=  0.00000000    

 SPECIFIED CONSTRAINT UY   FOR SELECTED NODES       554 TO      554 BY        1
 REAL=-3.471179160E-04   IMAG=  0.00000000    

 SPECIFIED CONSTRAINT UZ   FOR SELECTED NODES       554 TO      554 BY        1
 REAL=  0.00000000       IMAG=  0.00000000    

 SPECIFIED CONSTRAINT UX   FOR SELECTED NODES       555 TO      555 BY        1
 REAL= 1.572210767E-03   IMAG=  0.00000000    

 SPECIFIED CONSTRAINT UY   FOR SELECTED NODES       555 TO      555 BY        1
 REAL=-3.043785090E-04   IMAG=  0.00000000    

 SPECIFIED CONSTRAINT UZ   FOR SELECTED NODES       555 TO      555 BY        1
 REAL=  0.00000000       IMAG=  0.00000000    

 SPECIFIED CONSTRAINT UX   FOR SELECTED NODES       556 TO      556 BY        1
 REAL= 1.649088967E-03   IMAG=  0.00000000    

 SPECIFIED CONSTRAINT UY   FOR SELECTED NODES       556 TO      556 BY        1
 REAL=-2.385398180E-04   IMAG=  0.00000000    

 SPECIFIED CONSTRAINT UZ   FOR SELECTED NODES       556 TO      556 BY        1
 REAL=  0.00000000       IMAG=  0.00000000    

 SPECIFIED CONSTRAINT UX   FOR SELECTED NODES       557 TO      557 BY        1
 REAL= 1.477618014E-03   IMAG=  0.00000000    

 SPECIFIED CONSTRAINT UY   FOR SELECTED NODES       557 TO      557 BY        1
 REAL=-2.287827670E-04   IMAG=  0.00000000    

 SPECIFIED CONSTRAINT UZ   FOR SELECTED NODES       557 TO      557 BY        1
 REAL=  0.00000000       IMAG=  0.00000000    

 SPECIFIED CONSTRAINT UX   FOR SELECTED NODES       558 TO      558 BY        1
 REAL= 1.281046104E-03   IMAG=  0.00000000    

 SPECIFIED CONSTRAINT UY   FOR SELECTED NODES       558 TO      558 BY        1
 REAL=-2.270988070E-04   IMAG=  0.00000000    

 SPECIFIED CONSTRAINT UZ   FOR SELECTED NODES       558 TO      558 BY        1
 REAL=  0.00000000       IMAG=  0.00000000    

 SPECIFIED CONSTRAINT UX   FOR SELECTED NODES       559 TO      559 BY        1
 REAL= 1.195255833E-03   IMAG=  0.00000000    

 SPECIFIED CONSTRAINT UY   FOR SELECTED NODES       559 TO      559 BY        1
 REAL=-2.055601390E-04   IMAG=  0.00000000    

 SPECIFIED CONSTRAINT UZ   FOR SELECTED NODES       559 TO      559 BY        1
 REAL=  0.00000000       IMAG=  0.00000000    

 SPECIFIED CONSTRAINT UX   FOR SELECTED NODES       560 TO      560 BY        1
 REAL= 1.119174240E-03   IMAG=  0.00000000    

 SPECIFIED CONSTRAINT UY   FOR SELECTED NODES       560 TO      560 BY        1
 REAL=-1.834269880E-04   IMAG=  0.00000000    

 SPECIFIED CONSTRAINT UZ   FOR SELECTED NODES       560 TO      560 BY        1
 REAL=  0.00000000       IMAG=  0.00000000    

 SPECIFIED CONSTRAINT UX   FOR SELECTED NODES       561 TO      561 BY        1
 REAL= 9.903972180E-04   IMAG=  0.00000000    

 SPECIFIED CONSTRAINT UY   FOR SELECTED NODES       561 TO      561 BY        1
 REAL=-1.731915330E-04   IMAG=  0.00000000    

 SPECIFIED CONSTRAINT UZ   FOR SELECTED NODES       561 TO      561 BY        1
 REAL=  0.00000000       IMAG=  0.00000000    

 SPECIFIED CONSTRAINT UX   FOR SELECTED NODES       562 TO      562 BY        1
 REAL= 8.471631100E-04   IMAG=  0.00000000    

 SPECIFIED CONSTRAINT UY   FOR SELECTED NODES       562 TO      562 BY        1
 REAL=-1.660839470E-04   IMAG=  0.00000000    

 SPECIFIED CONSTRAINT UZ   FOR SELECTED NODES       562 TO      562 BY        1
 REAL=  0.00000000       IMAG=  0.00000000    

 SPECIFIED CONSTRAINT UX   FOR SELECTED NODES       563 TO      563 BY        1
 REAL= 7.509560730E-04   IMAG=  0.00000000    

 SPECIFIED CONSTRAINT UY   FOR SELECTED NODES       563 TO      563 BY        1
 REAL=-1.515127320E-04   IMAG=  0.00000000    

 SPECIFIED CONSTRAINT UZ   FOR SELECTED NODES       563 TO      563 BY        1
 REAL=  0.00000000       IMAG=  0.00000000    

 SPECIFIED CONSTRAINT UX   FOR SELECTED NODES       564 TO      564 BY        1
 REAL= 7.131333190E-04   IMAG=  0.00000000    

 SPECIFIED CONSTRAINT UY   FOR SELECTED NODES       564 TO      564 BY        1
 REAL=-1.327539750E-04   IMAG=  0.00000000    

 SPECIFIED CONSTRAINT UZ   FOR SELECTED NODES       564 TO      564 BY        1
 REAL=  0.00000000       IMAG=  0.00000000    

 SPECIFIED CONSTRAINT UX   FOR SELECTED NODES       565 TO      565 BY        1
 REAL= 7.196106440E-04   IMAG=  0.00000000    

 SPECIFIED CONSTRAINT UY   FOR SELECTED NODES       565 TO      565 BY        1
 REAL=-1.170884460E-04   IMAG=  0.00000000    

 SPECIFIED CONSTRAINT UZ   FOR SELECTED NODES       565 TO      565 BY        1
 REAL=  0.00000000       IMAG=  0.00000000    

 SPECIFIED CONSTRAINT UX   FOR SELECTED NODES       566 TO      566 BY        1
 REAL= 7.527783020E-04   IMAG=  0.00000000    

 SPECIFIED CONSTRAINT UY   FOR SELECTED NODES       566 TO      566 BY        1
 REAL=-1.059005200E-04   IMAG=  0.00000000    

 SPECIFIED CONSTRAINT UZ   FOR SELECTED NODES       566 TO      566 BY        1
 REAL=  0.00000000       IMAG=  0.00000000    

 SPECIFIED CONSTRAINT UX   FOR SELECTED NODES       567 TO      567 BY        1
 REAL= 8.191365630E-04   IMAG=  0.00000000    

 SPECIFIED CONSTRAINT UY   FOR SELECTED NODES       567 TO      567 BY        1
 REAL=-1.186315650E-04   IMAG=  0.00000000    

 SPECIFIED CONSTRAINT UZ   FOR SELECTED NODES       567 TO      567 BY        1
 REAL=  0.00000000       IMAG=  0.00000000    

 SELECT ALL ENTITIES OF TYPE= ALL  AND BELOW

 USE PRECONDITIONED CONJUGATE GRADIENT SOLVER
  CONVERGENCE TOLERANCE = 1.00000E-08
  MAXIMUM ITERATION     = NumNode*DofPerNode*  1.0000    

 *****  ANSYS SOLVE    COMMAND  *****

 *** NOTE ***                            CP =       0.498   TIME= 15:21:28
 There is no title defined for this analysis.                            

 *** ERROR ***                           CP =       0.498   TIME= 15:21:28
 There are no elements defined.                                          

 *** ERROR ***                           CP =       0.498   TIME= 15:21:28
 The model data was checked and there were errors found.                 
  Please check output or errors file (                                   
 /shared/multisim2/DVC/ShIRTImagesResults/me1ibe/2D_brain/Results/Specim 
 men1/VOI0/NodeSpacing10/input.err ) for messages.                       


 NUMBER OF WARNING MESSAGES ENCOUNTERED=          0
 NUMBER OF ERROR   MESSAGES ENCOUNTERED=          2



 ***** PROBLEM TERMINATED BY INDICATED ERROR(S) OR BY END OF INPUT DATA *****

+--------------------- A N S Y S   S T A T I S T I C S ------------------------+

Release: Release 17.2       Build: 17.2       Update: UP20160718   Platform: LINUX x64   
Date Run: 07/28/2019   Time: 15:21
Operating System: CentOS Linux release 7.6.1810 (Core)

Processor Model: Intel(R) Xeon(R) CPU E5-2630 v4 @ 2.20GHz

Compiler: Intel(R) FORTRAN Compiler Version 15.0.2  (Build: 20150121)
          Intel(R) C/C++ Compiler Version 15.0.2  (Build: 20150121)
          Intel(R) Math Kernel Library Version 11.2.3 Product Build 20150409

Number of machines requested            :    1
Total number of cores available         :   20
Number of physical cores available      :   20
Number of processes requested           :    1
Number of threads per process requested :    2
Total number of cores requested         :    2 (Shared Memory Parallel)                    

GPU Acceleration: Not Requested

Job Name: input
Input File: /shared/multisim2/DVC/ShIRTImagesResults/me1ibe/2D_brain/Results/Specimen1/VOI0/NodeSpacing10/input.txt
Working Directory: /tmp/usecase8759089049381591221dir

Total CPU time for main thread                    :        0.6 seconds
Total CPU time summed for all threads             :        0.5 seconds

Elapsed time spent pre-processing model (/PREP7)  :        0.0 seconds
Elapsed time spent solution - preprocessing       :        0.0 seconds
Elapsed time spent computing solution             :        0.0 seconds
Elapsed time spent solution - postprocessing      :        0.0 seconds
Elapsed time spent post-processing model (/POST1) :        0.0 seconds
 

Maximum total memory used                         :        2.0 MB
Maximum total memory allocated                    :     2112.0 MB
Maximum total memory available                    :        504 GB

+------------------ E N D   A N S Y S   S T A T I S T I C S -------------------+


 *---------------------------------------------------------------------------*
 |                                                                           |
 |                            ANSYS RUN COMPLETED                            |
 |                                                                           |
 |---------------------------------------------------------------------------|
 |                                                                           |
 | Ansys Release 17.2          Build 17.2         UP20160718     LINUX x64   |
 |                                                                           |
 |---------------------------------------------------------------------------|
 |                                                                           |
 | Database Requested(-db)  1024 MB    Scratch Memory Requested      1024 MB |
 | Maximum Database Used       1 MB    Maximum Scratch Memory Used      1 MB |
 |                                                                           |
 |---------------------------------------------------------------------------|
 |                                                                           |
 |        CP Time      (sec) =          0.506       Time  =  15:21:29        |
 |        Elapsed Time (sec) =          3.000       Date  =  07/28/2019      |
 |                                                                           |
 *---------------------------------------------------------------------------*
