
 ANSYS Academic Research                           


 *------------------------------------------------------------------*
 |                                                                  |
 |   W E L C O M E   T O   T H E   A N S Y S (R)  P R O G R A M     |
 |                                                                  |
 *------------------------------------------------------------------*




 ***************************************************************
 *            ANSYS Release 17.2     LEGAL NOTICES             *
 ***************************************************************
 *                                                             *
 * Copyright 2016 SAS IP, Inc.  All rights reserved.           *
 * Unauthorized use, distribution or duplication is            *
 * prohibited.                                                 *
 *                                                             *
 * Ansys is a registered trademark of ANSYS, Inc. or its       *
 * subsidiaries in the United States or other countries.       *
 * See the ANSYS, Inc. online documentation or the ANSYS, Inc. *
 * documentation CD or online help for the complete Legal      *
 * Notice.                                                     *
 *                                                             *
 ***************************************************************
 *                                                             *
 * THIS ANSYS SOFTWARE PRODUCT AND PROGRAM DOCUMENTATION       *
 * INCLUDE TRADE SECRETS AND CONFIDENTIAL AND PROPRIETARY      *
 * PRODUCTS OF ANSYS, INC., ITS SUBSIDIARIES, OR LICENSORS.    *
 * The software products and documentation are furnished by    *
 * ANSYS, Inc. or its subsidiaries under a software license    *
 * agreement that contains provisions concerning               *
 * non-disclosure, copying, length and nature of use,          *
 * compliance with exporting laws, warranties, disclaimers,    *
 * limitations of liability, and remedies, and other           *
 * provisions.  The software products and documentation may be *
 * used, disclosed, transferred, or copied only in accordance  *
 * with the terms and conditions of that software license      *
 * agreement.                                                  *
 *                                                             *
 * ANSYS, Inc. is a UL registered                              *
 * ISO 9001:2008 company.                                      *
 *                                                             *
 ***************************************************************
 *                                                             *
 * This product is subject to U.S. laws governing export and   *
 * re-export.                                                  *
 *                                                             *
 * For U.S. Government users, except as specifically granted   *
 * by the ANSYS, Inc. software license agreement, the use,     *
 * duplication, or disclosure by the United States Government  *
 * is subject to restrictions stated in the ANSYS, Inc.        *
 * software license agreement and FAR 12.212 (for non-DOD      *
 * licenses).                                                  *
 *                                                             *
 ***************************************************************


 AFTER YOU HAVE READ, UNDERSTOOD, AND AGREED TO THE PREVIOUS NOTICES,
 PRESS <CR> OR <ENTER> TO CONTINUE
 Release 17.2
     
 Point Releases and Patches installed:   
     
 ANSYS, Inc. Products Release 17.2   
 ANSYS Mechanical Products Release 17.2  
 ANSYS Customization Files for User Programmable Features Release 17.2   
 ANSYS Autodyn Release 17.2  
 ANSYS LS-DYNA Release 17.2  
 ANSYS CFX (includes ANSYS CFD-Post) Release 17.2
 ANSYS Fluent (includes ANSYS CFD-Post) Release 17.2 
 ANSYS TurboGrid Release 17.2
 ANSYS Polyflow (includes ANSYS CFD-Post) Release 17.2   
 ANSYS CFD-Post only Release 17.2
 ANSYS Forte Release 17.2
 ANSYS Chemkin Release 17.2  
 ANSYS ICEM CFD Release 17.2 
 ANSYS Composite PrepPost Release 17.2   
 ANSYS Icepak (includes ANSYS CFD-Post) Release 17.2 
 ANSYS Remote Solve Manager Standalone Services Release 17.2 
 ACIS Release 17.2   
 Catia, Version 5 Release 17.2   
 NX Release 17.2 
 Parasolid Release 17.2  
 ANSYS, Inc. License Manager Release 17.2


          *****  ANSYS COMMAND LINE ARGUMENTS  *****
  INITIAL JOBNAME              = input                                                                                                                                                                                                                                                   
  BATCH MODE REQUESTED (-b)    = LIST
  INPUT FILE COPY MODE (-c)    = COPY
  DESIGNXPLORER REQUESTED
  INPUT FILE NAME              = /shared/multisim2/DVC/ShIRTImagesResults/me1ibe/ET3/Results/Specimen1/VOI0/NodeSpacing20/input.txt
  OUTPUT FILE NAME             = /shared/multisim2/DVC/ShIRTImagesResults/me1ibe/ET3/Results/Specimen1/VOI0/NodeSpacing20/output.out
  START-UP FILE MODE           = READ  
  STOP FILE MODE               = READ  
  LANGUAGE                     = en-us               
  INITIAL DIRECTORY = /shared/multisim2/DVC/ShIRTImagesResults/me1ibe/ET3/Results/Specimen1/VOI0/NodeSpacing20

 RELEASE= Release 17.2         BUILD= 17.2      UP20160718   VERSION=LINUX x64   
 CURRENT JOBNAME=input  19:04:00  APR 14, 2019 CP=      0.194

     1  fini
     2  /cle
     3      
     4  /prep7  
     5      
     6  ET,1,SOLID185   
     7      
     8  /INPUT,'nodes','txt'
     9  /INPUT,'elements','txt' 
    10      
    11  MP,EX,1,17000   
    12  MP,PRXY,1,0.3   
    13      
    14      
    15  /FORMAT, , F15.10, 15, 10, 1000000000, ,
    16      
    17  /solu   
    18      
    19  /INPUT,'disp','txt' 
    20      
    21  allsel  
    22  eqslv,pcg   
    23  solve   
    24  FINISH  
    25      
    26      
    27  /prep7  
    28      
    29  /set, last  
    30  CDWRITE,DB,input,CDB
    31      
    32      
    33      
    34  /POST1  
    35      
    36  /OUTPUT,ANSYS_results,txt     ! redirect output to a file called "ANSYS_results.txt" with principal strains 
    37  PRNSOL, EPEL, PRIN  
    38  /out
    39      
    40  /OUTPUT,ANSYS_results_xyz,txt     ! redirect output to a file called "ANSYS_results_xyz.txt" with strain components 
    41  PRNSOL, EPEL, COMP  
    42  /out
    43      
    44      
    45  ! Create element table, column 1 to 6 is components, 7 to 9 are principal strain
    46  ETABLE,StrainXX,EPEL,X,avg  
    47  ETABLE,StrainYY,EPEL,Y,avg  
    48  ETABLE,StrainZZ,EPEL,Z,avg  
    49  ETABLE,StrainXY,EPEL,XY,avg 
    50  ETABLE,StrainYZ,EPEL,YZ,avg 
    51  ETABLE,StrainXZ,EPEL,XZ,avg 
    52      
    53  ETABLE,Strain1,EPEL,1,avg   
    54  ETABLE,Strain2,EPEL,2,avg   
    55  ETABLE,Strain3,EPEL,3,avg   
    56      
    57  !!!!!!!!!!!!!!!!!!!!!!!!!!!!!!!!!!!!!!!!!!!!!!!!!!!!!!!!!!  
    58      
    59      
    60  *get,nElements,ELEM,0,count 
    61  *status,nElements   
    62      
    63      
    64  !Create an array to store strain components 
    65  *DIM,vData,ARRAY,nElements,7
    66      
    67  !Create an array to store strain principal  
    68  *DIM,vData2,ARRAY,nElements,4   
    69      
    70  !!!!!!!!!!!!!!!!!!!!!!!!!!!!!!!!!!!!!!!!!!!!!!!!!!!!!!!!!!  
    71  ! Loop over each element
    72      
    73  N = 0   
    74      
    75  *do,i,1,nElements   
    76      
    77       *get,ElemNum,ELEM,N,NXTH   
    78        vData(i,1) = ElemNum  
    79       *get,vData(i,2),ETAB,1,ELEM,ElemNum
    80       *get,vData(i,3),ETAB,2,ELEM,ElemNum
    81       *get,vData(i,4),ETAB,3,ELEM,ElemNum
    82       *get,vData(i,5),ETAB,4,ELEM,ElemNum
    83       *get,vData(i,6),ETAB,5,ELEM,ElemNum
    84       *get,vData(i,7),ETAB,6,ELEM,ElemNum
    85      
    86      
    87       vData2(i,1) = ElemNum  
    88       *get,vData2(i,2),ETAB,7,ELEM,ElemNum   
    89       *get,vData2(i,3),ETAB,8,ELEM,ElemNum   
    90       *get,vData2(i,4),ETAB,9,ELEM,ElemNum   
    91      
    92       N = ElemNum
    93      
    94  *enddo  
    95      
    96      
    97  !!!!!!!!!!!!!!!!!!!!!!!!!!!!!!!!!!!!!!!!!!!!!!!!!!!!!!!!!!!!
    98      
    99  !output results into ASCII file StrainTensor.txt
   100  *cfopen,ANSYS_results_elements_xyz,txt  
   101  *vwrite,vData(1,1),vData(1,2),vData(1,3),vData(1,4),vData(1,5),vData(1,6),vData(1,7)
   102  (F10.0,TL1,' ','  'F15.10,'  ',F15.10,'  ',F15.10,'  ',F15.10,'  ',F15.10,'  ',F15.10)  
   103  *cfclos 
   104      
   105      
   106  !output results into ASCII file StrainPrincipal.txt 
   107  *cfopen,ANSYS_results_elements,txt  
   108  *vwrite,vData2(1,1),vData2(1,2),vData2(1,3),vData2(1,4) 
   109  (F10.0,TL1,' ','  'F15.10,'  ',F15.10,'  ',F15.10)  
   110  *cfclos 
   111      
   112      
   113      
   114      
   115      
   116      
   117      
   118      
   119  finish  

 RUN SETUP PROCEDURE FROM FILE= /usr/local/packages/apps/ansys/17.2/v172/ansys/apdl/start.ans

 /INPUT FILE= /usr/local/packages/apps/ansys/17.2/v172/ansys/apdl/start.ans  LINE=       0

 CLEAR DATABASE AND RERUN START.ANS

 RUN SETUP PROCEDURE FROM FILE= /usr/local/packages/apps/ansys/17.2/v172/ansys/apdl/start.ans

 ANSYS Academic Research                           

 /INPUT FILE= /usr/local/packages/apps/ansys/17.2/v172/ansys/apdl/start.ans  LINE=       0

 *** ANSYS - ENGINEERING ANALYSIS SYSTEM  RELEASE Release 17.2     17.2     ***
 ANSYS Academic Research                           
 00210476  VERSION=LINUX x64     19:04:00  APR 14, 2019 CP=      0.339

                                                                               



          ***** ANSYS ANALYSIS DEFINITION (PREP7) *****

 ELEMENT TYPE       1 IS SOLID185     3-D 8-NODE STRUCTURAL SOLID 
  KEYOPT( 1- 6)=        0      0      0        0      0      0
  KEYOPT( 7-12)=        0      0      0        0      0      0
  KEYOPT(13-18)=        0      0      0        0      0      0

 CURRENT NODAL DOF SET IS  UX    UY    UZ  
  THREE-DIMENSIONAL MODEL

 /INPUT FILE= nodes.txt  LINE=       0

 NODE         1  KCS=      0  X,Y,Z=-0.14500E-001-0.14500E-001-0.14500E-001

 NODE         2  KCS=      0  X,Y,Z=-0.14500E-001 0.55000E-002-0.14500E-001

 NODE         3  KCS=      0  X,Y,Z=-0.14500E-001 0.25500E-001-0.14500E-001

 NODE         4  KCS=      0  X,Y,Z=-0.14500E-001 0.45500E-001-0.14500E-001

 NODE         5  KCS=      0  X,Y,Z=-0.14500E-001 0.65500E-001-0.14500E-001

 NODE         6  KCS=      0  X,Y,Z=-0.14500E-001 0.85500E-001-0.14500E-001

 NODE         7  KCS=      0  X,Y,Z=-0.14500E-001 0.10550     -0.14500E-001

 NODE         8  KCS=      0  X,Y,Z=-0.14500E-001 0.12550     -0.14500E-001

 NODE         9  KCS=      0  X,Y,Z=-0.14500E-001 0.14550     -0.14500E-001

 NODE        10  KCS=      0  X,Y,Z=-0.14500E-001 0.16550     -0.14500E-001

 NODE        11  KCS=      0  X,Y,Z=-0.14500E-001 0.18550     -0.14500E-001

 NODE        12  KCS=      0  X,Y,Z=-0.14500E-001 0.20550     -0.14500E-001

 NODE        13  KCS=      0  X,Y,Z=-0.14500E-001 0.22550     -0.14500E-001

 NODE        14  KCS=      0  X,Y,Z= 0.55000E-002-0.14500E-001-0.14500E-001

 NODE        15  KCS=      0  X,Y,Z= 0.55000E-002 0.55000E-002-0.14500E-001

 NODE        16  KCS=      0  X,Y,Z= 0.55000E-002 0.25500E-001-0.14500E-001

 NODE        17  KCS=      0  X,Y,Z= 0.55000E-002 0.45500E-001-0.14500E-001

 NODE        18  KCS=      0  X,Y,Z= 0.55000E-002 0.65500E-001-0.14500E-001

 NODE        19  KCS=      0  X,Y,Z= 0.55000E-002 0.85500E-001-0.14500E-001

 NODE        20  KCS=      0  X,Y,Z= 0.55000E-002 0.10550     -0.14500E-001

 NODE        21  KCS=      0  X,Y,Z= 0.55000E-002 0.12550     -0.14500E-001

 NODE        22  KCS=      0  X,Y,Z= 0.55000E-002 0.14550     -0.14500E-001

 NODE        23  KCS=      0  X,Y,Z= 0.55000E-002 0.16550     -0.14500E-001

 NODE        24  KCS=      0  X,Y,Z= 0.55000E-002 0.18550     -0.14500E-001

 NODE        25  KCS=      0  X,Y,Z= 0.55000E-002 0.20550     -0.14500E-001

 NODE        26  KCS=      0  X,Y,Z= 0.55000E-002 0.22550     -0.14500E-001

 NODE        27  KCS=      0  X,Y,Z= 0.25500E-001-0.14500E-001-0.14500E-001

 NODE        28  KCS=      0  X,Y,Z= 0.25500E-001 0.55000E-002-0.14500E-001

 NODE        29  KCS=      0  X,Y,Z= 0.25500E-001 0.25500E-001-0.14500E-001

 NODE        30  KCS=      0  X,Y,Z= 0.25500E-001 0.45500E-001-0.14500E-001

 NODE        31  KCS=      0  X,Y,Z= 0.25500E-001 0.65500E-001-0.14500E-001

 NODE        32  KCS=      0  X,Y,Z= 0.25500E-001 0.85500E-001-0.14500E-001

 NODE        33  KCS=      0  X,Y,Z= 0.25500E-001 0.10550     -0.14500E-001

 NODE        34  KCS=      0  X,Y,Z= 0.25500E-001 0.12550     -0.14500E-001

 NODE        35  KCS=      0  X,Y,Z= 0.25500E-001 0.14550     -0.14500E-001

 NODE        36  KCS=      0  X,Y,Z= 0.25500E-001 0.16550     -0.14500E-001

 NODE        37  KCS=      0  X,Y,Z= 0.25500E-001 0.18550     -0.14500E-001

 NODE        38  KCS=      0  X,Y,Z= 0.25500E-001 0.20550     -0.14500E-001

 NODE        39  KCS=      0  X,Y,Z= 0.25500E-001 0.22550     -0.14500E-001

 NODE        40  KCS=      0  X,Y,Z= 0.45500E-001-0.14500E-001-0.14500E-001

 NODE        41  KCS=      0  X,Y,Z= 0.45500E-001 0.55000E-002-0.14500E-001

 NODE        42  KCS=      0  X,Y,Z= 0.45500E-001 0.25500E-001-0.14500E-001

 NODE        43  KCS=      0  X,Y,Z= 0.45500E-001 0.45500E-001-0.14500E-001

 NODE        44  KCS=      0  X,Y,Z= 0.45500E-001 0.65500E-001-0.14500E-001

 NODE        45  KCS=      0  X,Y,Z= 0.45500E-001 0.85500E-001-0.14500E-001

 NODE        46  KCS=      0  X,Y,Z= 0.45500E-001 0.10550     -0.14500E-001

 NODE        47  KCS=      0  X,Y,Z= 0.45500E-001 0.12550     -0.14500E-001

 NODE        48  KCS=      0  X,Y,Z= 0.45500E-001 0.14550     -0.14500E-001

 NODE        49  KCS=      0  X,Y,Z= 0.45500E-001 0.16550     -0.14500E-001

 NODE        50  KCS=      0  X,Y,Z= 0.45500E-001 0.18550     -0.14500E-001

 NODE        51  KCS=      0  X,Y,Z= 0.45500E-001 0.20550     -0.14500E-001

 NODE        52  KCS=      0  X,Y,Z= 0.45500E-001 0.22550     -0.14500E-001

 NODE        53  KCS=      0  X,Y,Z= 0.65500E-001-0.14500E-001-0.14500E-001

 NODE        54  KCS=      0  X,Y,Z= 0.65500E-001 0.55000E-002-0.14500E-001

 NODE        55  KCS=      0  X,Y,Z= 0.65500E-001 0.25500E-001-0.14500E-001

 NODE        56  KCS=      0  X,Y,Z= 0.65500E-001 0.45500E-001-0.14500E-001

 NODE        57  KCS=      0  X,Y,Z= 0.65500E-001 0.65500E-001-0.14500E-001

 NODE        58  KCS=      0  X,Y,Z= 0.65500E-001 0.85500E-001-0.14500E-001

 NODE        59  KCS=      0  X,Y,Z= 0.65500E-001 0.10550     -0.14500E-001

 NODE        60  KCS=      0  X,Y,Z= 0.65500E-001 0.12550     -0.14500E-001

 NODE        61  KCS=      0  X,Y,Z= 0.65500E-001 0.14550     -0.14500E-001

 NODE        62  KCS=      0  X,Y,Z= 0.65500E-001 0.16550     -0.14500E-001

 NODE        63  KCS=      0  X,Y,Z= 0.65500E-001 0.18550     -0.14500E-001

 NODE        64  KCS=      0  X,Y,Z= 0.65500E-001 0.20550     -0.14500E-001

 NODE        65  KCS=      0  X,Y,Z= 0.65500E-001 0.22550     -0.14500E-001

 NODE        66  KCS=      0  X,Y,Z= 0.85500E-001-0.14500E-001-0.14500E-001

 NODE        67  KCS=      0  X,Y,Z= 0.85500E-001 0.55000E-002-0.14500E-001

 NODE        68  KCS=      0  X,Y,Z= 0.85500E-001 0.25500E-001-0.14500E-001

 NODE        69  KCS=      0  X,Y,Z= 0.85500E-001 0.45500E-001-0.14500E-001

 NODE        70  KCS=      0  X,Y,Z= 0.85500E-001 0.65500E-001-0.14500E-001

 NODE        71  KCS=      0  X,Y,Z= 0.85500E-001 0.85500E-001-0.14500E-001

 NODE        72  KCS=      0  X,Y,Z= 0.85500E-001 0.10550     -0.14500E-001

 NODE        73  KCS=      0  X,Y,Z= 0.85500E-001 0.12550     -0.14500E-001

 NODE        74  KCS=      0  X,Y,Z= 0.85500E-001 0.14550     -0.14500E-001

 NODE        75  KCS=      0  X,Y,Z= 0.85500E-001 0.16550     -0.14500E-001

 NODE        76  KCS=      0  X,Y,Z= 0.85500E-001 0.18550     -0.14500E-001

 NODE        77  KCS=      0  X,Y,Z= 0.85500E-001 0.20550     -0.14500E-001

 NODE        78  KCS=      0  X,Y,Z= 0.85500E-001 0.22550     -0.14500E-001

 NODE        79  KCS=      0  X,Y,Z= 0.10550     -0.14500E-001-0.14500E-001

 NODE        80  KCS=      0  X,Y,Z= 0.10550      0.55000E-002-0.14500E-001

 NODE        81  KCS=      0  X,Y,Z= 0.10550      0.25500E-001-0.14500E-001

 NODE        82  KCS=      0  X,Y,Z= 0.10550      0.45500E-001-0.14500E-001

 NODE        83  KCS=      0  X,Y,Z= 0.10550      0.65500E-001-0.14500E-001

 NODE        84  KCS=      0  X,Y,Z= 0.10550      0.85500E-001-0.14500E-001

 NODE        85  KCS=      0  X,Y,Z= 0.10550      0.10550     -0.14500E-001

 NODE        86  KCS=      0  X,Y,Z= 0.10550      0.12550     -0.14500E-001

 NODE        87  KCS=      0  X,Y,Z= 0.10550      0.14550     -0.14500E-001

 NODE        88  KCS=      0  X,Y,Z= 0.10550      0.16550     -0.14500E-001

 NODE        89  KCS=      0  X,Y,Z= 0.10550      0.18550     -0.14500E-001

 NODE        90  KCS=      0  X,Y,Z= 0.10550      0.20550     -0.14500E-001

 NODE        91  KCS=      0  X,Y,Z= 0.10550      0.22550     -0.14500E-001

 NODE        92  KCS=      0  X,Y,Z= 0.12550     -0.14500E-001-0.14500E-001

 NODE        93  KCS=      0  X,Y,Z= 0.12550      0.55000E-002-0.14500E-001

 NODE        94  KCS=      0  X,Y,Z= 0.12550      0.25500E-001-0.14500E-001

 NODE        95  KCS=      0  X,Y,Z= 0.12550      0.45500E-001-0.14500E-001

 NODE        96  KCS=      0  X,Y,Z= 0.12550      0.65500E-001-0.14500E-001

 NODE        97  KCS=      0  X,Y,Z= 0.12550      0.85500E-001-0.14500E-001

 NODE        98  KCS=      0  X,Y,Z= 0.12550      0.10550     -0.14500E-001

 NODE        99  KCS=      0  X,Y,Z= 0.12550      0.12550     -0.14500E-001

 NODE       100  KCS=      0  X,Y,Z= 0.12550      0.14550     -0.14500E-001

 NODE       101  KCS=      0  X,Y,Z= 0.12550      0.16550     -0.14500E-001

 NODE       102  KCS=      0  X,Y,Z= 0.12550      0.18550     -0.14500E-001

 NODE       103  KCS=      0  X,Y,Z= 0.12550      0.20550     -0.14500E-001

 NODE       104  KCS=      0  X,Y,Z= 0.12550      0.22550     -0.14500E-001

 NODE       105  KCS=      0  X,Y,Z= 0.14550     -0.14500E-001-0.14500E-001

 NODE       106  KCS=      0  X,Y,Z= 0.14550      0.55000E-002-0.14500E-001

 NODE       107  KCS=      0  X,Y,Z= 0.14550      0.25500E-001-0.14500E-001

 NODE       108  KCS=      0  X,Y,Z= 0.14550      0.45500E-001-0.14500E-001

 NODE       109  KCS=      0  X,Y,Z= 0.14550      0.65500E-001-0.14500E-001

 NODE       110  KCS=      0  X,Y,Z= 0.14550      0.85500E-001-0.14500E-001

 NODE       111  KCS=      0  X,Y,Z= 0.14550      0.10550     -0.14500E-001

 NODE       112  KCS=      0  X,Y,Z= 0.14550      0.12550     -0.14500E-001

 NODE       113  KCS=      0  X,Y,Z= 0.14550      0.14550     -0.14500E-001

 NODE       114  KCS=      0  X,Y,Z= 0.14550      0.16550     -0.14500E-001

 NODE       115  KCS=      0  X,Y,Z= 0.14550      0.18550     -0.14500E-001

 NODE       116  KCS=      0  X,Y,Z= 0.14550      0.20550     -0.14500E-001

 NODE       117  KCS=      0  X,Y,Z= 0.14550      0.22550     -0.14500E-001

 NODE       118  KCS=      0  X,Y,Z= 0.16550     -0.14500E-001-0.14500E-001

 NODE       119  KCS=      0  X,Y,Z= 0.16550      0.55000E-002-0.14500E-001

 NODE       120  KCS=      0  X,Y,Z= 0.16550      0.25500E-001-0.14500E-001

 NODE       121  KCS=      0  X,Y,Z= 0.16550      0.45500E-001-0.14500E-001

 NODE       122  KCS=      0  X,Y,Z= 0.16550      0.65500E-001-0.14500E-001

 NODE       123  KCS=      0  X,Y,Z= 0.16550      0.85500E-001-0.14500E-001

 NODE       124  KCS=      0  X,Y,Z= 0.16550      0.10550     -0.14500E-001

 NODE       125  KCS=      0  X,Y,Z= 0.16550      0.12550     -0.14500E-001

 NODE       126  KCS=      0  X,Y,Z= 0.16550      0.14550     -0.14500E-001

 NODE       127  KCS=      0  X,Y,Z= 0.16550      0.16550     -0.14500E-001

 NODE       128  KCS=      0  X,Y,Z= 0.16550      0.18550     -0.14500E-001

 NODE       129  KCS=      0  X,Y,Z= 0.16550      0.20550     -0.14500E-001

 NODE       130  KCS=      0  X,Y,Z= 0.16550      0.22550     -0.14500E-001

 NODE       131  KCS=      0  X,Y,Z= 0.18550     -0.14500E-001-0.14500E-001

 NODE       132  KCS=      0  X,Y,Z= 0.18550      0.55000E-002-0.14500E-001

 NODE       133  KCS=      0  X,Y,Z= 0.18550      0.25500E-001-0.14500E-001

 NODE       134  KCS=      0  X,Y,Z= 0.18550      0.45500E-001-0.14500E-001

 NODE       135  KCS=      0  X,Y,Z= 0.18550      0.65500E-001-0.14500E-001

 NODE       136  KCS=      0  X,Y,Z= 0.18550      0.85500E-001-0.14500E-001

 NODE       137  KCS=      0  X,Y,Z= 0.18550      0.10550     -0.14500E-001

 NODE       138  KCS=      0  X,Y,Z= 0.18550      0.12550     -0.14500E-001

 NODE       139  KCS=      0  X,Y,Z= 0.18550      0.14550     -0.14500E-001

 NODE       140  KCS=      0  X,Y,Z= 0.18550      0.16550     -0.14500E-001

 NODE       141  KCS=      0  X,Y,Z= 0.18550      0.18550     -0.14500E-001

 NODE       142  KCS=      0  X,Y,Z= 0.18550      0.20550     -0.14500E-001

 NODE       143  KCS=      0  X,Y,Z= 0.18550      0.22550     -0.14500E-001

 NODE       144  KCS=      0  X,Y,Z= 0.20550     -0.14500E-001-0.14500E-001

 NODE       145  KCS=      0  X,Y,Z= 0.20550      0.55000E-002-0.14500E-001

 NODE       146  KCS=      0  X,Y,Z= 0.20550      0.25500E-001-0.14500E-001

 NODE       147  KCS=      0  X,Y,Z= 0.20550      0.45500E-001-0.14500E-001

 NODE       148  KCS=      0  X,Y,Z= 0.20550      0.65500E-001-0.14500E-001

 NODE       149  KCS=      0  X,Y,Z= 0.20550      0.85500E-001-0.14500E-001

 NODE       150  KCS=      0  X,Y,Z= 0.20550      0.10550     -0.14500E-001

 NODE       151  KCS=      0  X,Y,Z= 0.20550      0.12550     -0.14500E-001

 NODE       152  KCS=      0  X,Y,Z= 0.20550      0.14550     -0.14500E-001

 NODE       153  KCS=      0  X,Y,Z= 0.20550      0.16550     -0.14500E-001

 NODE       154  KCS=      0  X,Y,Z= 0.20550      0.18550     -0.14500E-001

 NODE       155  KCS=      0  X,Y,Z= 0.20550      0.20550     -0.14500E-001

 NODE       156  KCS=      0  X,Y,Z= 0.20550      0.22550     -0.14500E-001

 NODE       157  KCS=      0  X,Y,Z= 0.22550     -0.14500E-001-0.14500E-001

 NODE       158  KCS=      0  X,Y,Z= 0.22550      0.55000E-002-0.14500E-001

 NODE       159  KCS=      0  X,Y,Z= 0.22550      0.25500E-001-0.14500E-001

 NODE       160  KCS=      0  X,Y,Z= 0.22550      0.45500E-001-0.14500E-001

 NODE       161  KCS=      0  X,Y,Z= 0.22550      0.65500E-001-0.14500E-001

 NODE       162  KCS=      0  X,Y,Z= 0.22550      0.85500E-001-0.14500E-001

 NODE       163  KCS=      0  X,Y,Z= 0.22550      0.10550     -0.14500E-001

 NODE       164  KCS=      0  X,Y,Z= 0.22550      0.12550     -0.14500E-001

 NODE       165  KCS=      0  X,Y,Z= 0.22550      0.14550     -0.14500E-001

 NODE       166  KCS=      0  X,Y,Z= 0.22550      0.16550     -0.14500E-001

 NODE       167  KCS=      0  X,Y,Z= 0.22550      0.18550     -0.14500E-001

 NODE       168  KCS=      0  X,Y,Z= 0.22550      0.20550     -0.14500E-001

 NODE       169  KCS=      0  X,Y,Z= 0.22550      0.22550     -0.14500E-001

 NODE       170  KCS=      0  X,Y,Z=-0.14500E-001-0.14500E-001 0.55000E-002

 NODE       171  KCS=      0  X,Y,Z=-0.14500E-001 0.55000E-002 0.55000E-002

 NODE       172  KCS=      0  X,Y,Z=-0.14500E-001 0.25500E-001 0.55000E-002

 NODE       173  KCS=      0  X,Y,Z=-0.14500E-001 0.45500E-001 0.55000E-002

 NODE       174  KCS=      0  X,Y,Z=-0.14500E-001 0.65500E-001 0.55000E-002

 NODE       175  KCS=      0  X,Y,Z=-0.14500E-001 0.85500E-001 0.55000E-002

 NODE       176  KCS=      0  X,Y,Z=-0.14500E-001 0.10550      0.55000E-002

 NODE       177  KCS=      0  X,Y,Z=-0.14500E-001 0.12550      0.55000E-002

 NODE       178  KCS=      0  X,Y,Z=-0.14500E-001 0.14550      0.55000E-002

 NODE       179  KCS=      0  X,Y,Z=-0.14500E-001 0.16550      0.55000E-002

 NODE       180  KCS=      0  X,Y,Z=-0.14500E-001 0.18550      0.55000E-002

 NODE       181  KCS=      0  X,Y,Z=-0.14500E-001 0.20550      0.55000E-002

 NODE       182  KCS=      0  X,Y,Z=-0.14500E-001 0.22550      0.55000E-002

 NODE       183  KCS=      0  X,Y,Z= 0.55000E-002-0.14500E-001 0.55000E-002

 NODE       184  KCS=      0  X,Y,Z= 0.55000E-002 0.55000E-002 0.55000E-002

 NODE       185  KCS=      0  X,Y,Z= 0.55000E-002 0.25500E-001 0.55000E-002

 NODE       186  KCS=      0  X,Y,Z= 0.55000E-002 0.45500E-001 0.55000E-002

 NODE       187  KCS=      0  X,Y,Z= 0.55000E-002 0.65500E-001 0.55000E-002

 NODE       188  KCS=      0  X,Y,Z= 0.55000E-002 0.85500E-001 0.55000E-002

 NODE       189  KCS=      0  X,Y,Z= 0.55000E-002 0.10550      0.55000E-002

 NODE       190  KCS=      0  X,Y,Z= 0.55000E-002 0.12550      0.55000E-002

 NODE       191  KCS=      0  X,Y,Z= 0.55000E-002 0.14550      0.55000E-002

 NODE       192  KCS=      0  X,Y,Z= 0.55000E-002 0.16550      0.55000E-002

 NODE       193  KCS=      0  X,Y,Z= 0.55000E-002 0.18550      0.55000E-002

 NODE       194  KCS=      0  X,Y,Z= 0.55000E-002 0.20550      0.55000E-002

 NODE       195  KCS=      0  X,Y,Z= 0.55000E-002 0.22550      0.55000E-002

 NODE       196  KCS=      0  X,Y,Z= 0.25500E-001-0.14500E-001 0.55000E-002

 NODE       197  KCS=      0  X,Y,Z= 0.25500E-001 0.55000E-002 0.55000E-002

 NODE       198  KCS=      0  X,Y,Z= 0.25500E-001 0.25500E-001 0.55000E-002

 NODE       199  KCS=      0  X,Y,Z= 0.25500E-001 0.45500E-001 0.55000E-002

 NODE       200  KCS=      0  X,Y,Z= 0.25500E-001 0.65500E-001 0.55000E-002

 NODE       201  KCS=      0  X,Y,Z= 0.25500E-001 0.85500E-001 0.55000E-002

 NODE       202  KCS=      0  X,Y,Z= 0.25500E-001 0.10550      0.55000E-002

 NODE       203  KCS=      0  X,Y,Z= 0.25500E-001 0.12550      0.55000E-002

 NODE       204  KCS=      0  X,Y,Z= 0.25500E-001 0.14550      0.55000E-002

 NODE       205  KCS=      0  X,Y,Z= 0.25500E-001 0.16550      0.55000E-002

 NODE       206  KCS=      0  X,Y,Z= 0.25500E-001 0.18550      0.55000E-002

 NODE       207  KCS=      0  X,Y,Z= 0.25500E-001 0.20550      0.55000E-002

 NODE       208  KCS=      0  X,Y,Z= 0.25500E-001 0.22550      0.55000E-002

 NODE       209  KCS=      0  X,Y,Z= 0.45500E-001-0.14500E-001 0.55000E-002

 NODE       210  KCS=      0  X,Y,Z= 0.45500E-001 0.55000E-002 0.55000E-002

 NODE       211  KCS=      0  X,Y,Z= 0.45500E-001 0.25500E-001 0.55000E-002

 NODE       212  KCS=      0  X,Y,Z= 0.45500E-001 0.45500E-001 0.55000E-002

 NODE       213  KCS=      0  X,Y,Z= 0.45500E-001 0.65500E-001 0.55000E-002

 NODE       214  KCS=      0  X,Y,Z= 0.45500E-001 0.85500E-001 0.55000E-002

 NODE       215  KCS=      0  X,Y,Z= 0.45500E-001 0.10550      0.55000E-002

 NODE       216  KCS=      0  X,Y,Z= 0.45500E-001 0.12550      0.55000E-002

 NODE       217  KCS=      0  X,Y,Z= 0.45500E-001 0.14550      0.55000E-002

 NODE       218  KCS=      0  X,Y,Z= 0.45500E-001 0.16550      0.55000E-002

 NODE       219  KCS=      0  X,Y,Z= 0.45500E-001 0.18550      0.55000E-002

 NODE       220  KCS=      0  X,Y,Z= 0.45500E-001 0.20550      0.55000E-002

 NODE       221  KCS=      0  X,Y,Z= 0.45500E-001 0.22550      0.55000E-002

 NODE       222  KCS=      0  X,Y,Z= 0.65500E-001-0.14500E-001 0.55000E-002

 NODE       223  KCS=      0  X,Y,Z= 0.65500E-001 0.55000E-002 0.55000E-002

 NODE       224  KCS=      0  X,Y,Z= 0.65500E-001 0.25500E-001 0.55000E-002

 NODE       225  KCS=      0  X,Y,Z= 0.65500E-001 0.45500E-001 0.55000E-002

 NODE       226  KCS=      0  X,Y,Z= 0.65500E-001 0.65500E-001 0.55000E-002

 NODE       227  KCS=      0  X,Y,Z= 0.65500E-001 0.85500E-001 0.55000E-002

 NODE       228  KCS=      0  X,Y,Z= 0.65500E-001 0.10550      0.55000E-002

 NODE       229  KCS=      0  X,Y,Z= 0.65500E-001 0.12550      0.55000E-002

 NODE       230  KCS=      0  X,Y,Z= 0.65500E-001 0.14550      0.55000E-002

 NODE       231  KCS=      0  X,Y,Z= 0.65500E-001 0.16550      0.55000E-002

 NODE       232  KCS=      0  X,Y,Z= 0.65500E-001 0.18550      0.55000E-002

 NODE       233  KCS=      0  X,Y,Z= 0.65500E-001 0.20550      0.55000E-002

 NODE       234  KCS=      0  X,Y,Z= 0.65500E-001 0.22550      0.55000E-002

 NODE       235  KCS=      0  X,Y,Z= 0.85500E-001-0.14500E-001 0.55000E-002

 NODE       236  KCS=      0  X,Y,Z= 0.85500E-001 0.55000E-002 0.55000E-002

 NODE       237  KCS=      0  X,Y,Z= 0.85500E-001 0.25500E-001 0.55000E-002

 NODE       238  KCS=      0  X,Y,Z= 0.85500E-001 0.45500E-001 0.55000E-002

 NODE       239  KCS=      0  X,Y,Z= 0.85500E-001 0.65500E-001 0.55000E-002

 NODE       240  KCS=      0  X,Y,Z= 0.85500E-001 0.85500E-001 0.55000E-002

 NODE       241  KCS=      0  X,Y,Z= 0.85500E-001 0.10550      0.55000E-002

 NODE       242  KCS=      0  X,Y,Z= 0.85500E-001 0.12550      0.55000E-002

 NODE       243  KCS=      0  X,Y,Z= 0.85500E-001 0.14550      0.55000E-002

 NODE       244  KCS=      0  X,Y,Z= 0.85500E-001 0.16550      0.55000E-002

 NODE       245  KCS=      0  X,Y,Z= 0.85500E-001 0.18550      0.55000E-002

 NODE       246  KCS=      0  X,Y,Z= 0.85500E-001 0.20550      0.55000E-002

 NODE       247  KCS=      0  X,Y,Z= 0.85500E-001 0.22550      0.55000E-002

 NODE       248  KCS=      0  X,Y,Z= 0.10550     -0.14500E-001 0.55000E-002

 NODE       249  KCS=      0  X,Y,Z= 0.10550      0.55000E-002 0.55000E-002

 NODE       250  KCS=      0  X,Y,Z= 0.10550      0.25500E-001 0.55000E-002

 NODE       251  KCS=      0  X,Y,Z= 0.10550      0.45500E-001 0.55000E-002

 NODE       252  KCS=      0  X,Y,Z= 0.10550      0.65500E-001 0.55000E-002

 NODE       253  KCS=      0  X,Y,Z= 0.10550      0.85500E-001 0.55000E-002

 NODE       254  KCS=      0  X,Y,Z= 0.10550      0.10550      0.55000E-002

 NODE       255  KCS=      0  X,Y,Z= 0.10550      0.12550      0.55000E-002

 NODE       256  KCS=      0  X,Y,Z= 0.10550      0.14550      0.55000E-002

 NODE       257  KCS=      0  X,Y,Z= 0.10550      0.16550      0.55000E-002

 NODE       258  KCS=      0  X,Y,Z= 0.10550      0.18550      0.55000E-002

 NODE       259  KCS=      0  X,Y,Z= 0.10550      0.20550      0.55000E-002

 NODE       260  KCS=      0  X,Y,Z= 0.10550      0.22550      0.55000E-002

 NODE       261  KCS=      0  X,Y,Z= 0.12550     -0.14500E-001 0.55000E-002

 NODE       262  KCS=      0  X,Y,Z= 0.12550      0.55000E-002 0.55000E-002

 NODE       263  KCS=      0  X,Y,Z= 0.12550      0.25500E-001 0.55000E-002

 NODE       264  KCS=      0  X,Y,Z= 0.12550      0.45500E-001 0.55000E-002

 NODE       265  KCS=      0  X,Y,Z= 0.12550      0.65500E-001 0.55000E-002

 NODE       266  KCS=      0  X,Y,Z= 0.12550      0.85500E-001 0.55000E-002

 NODE       267  KCS=      0  X,Y,Z= 0.12550      0.10550      0.55000E-002

 NODE       268  KCS=      0  X,Y,Z= 0.12550      0.12550      0.55000E-002

 NODE       269  KCS=      0  X,Y,Z= 0.12550      0.14550      0.55000E-002

 NODE       270  KCS=      0  X,Y,Z= 0.12550      0.16550      0.55000E-002

 NODE       271  KCS=      0  X,Y,Z= 0.12550      0.18550      0.55000E-002

 NODE       272  KCS=      0  X,Y,Z= 0.12550      0.20550      0.55000E-002

 NODE       273  KCS=      0  X,Y,Z= 0.12550      0.22550      0.55000E-002

 NODE       274  KCS=      0  X,Y,Z= 0.14550     -0.14500E-001 0.55000E-002

 NODE       275  KCS=      0  X,Y,Z= 0.14550      0.55000E-002 0.55000E-002

 NODE       276  KCS=      0  X,Y,Z= 0.14550      0.25500E-001 0.55000E-002

 NODE       277  KCS=      0  X,Y,Z= 0.14550      0.45500E-001 0.55000E-002

 NODE       278  KCS=      0  X,Y,Z= 0.14550      0.65500E-001 0.55000E-002

 NODE       279  KCS=      0  X,Y,Z= 0.14550      0.85500E-001 0.55000E-002

 NODE       280  KCS=      0  X,Y,Z= 0.14550      0.10550      0.55000E-002

 NODE       281  KCS=      0  X,Y,Z= 0.14550      0.12550      0.55000E-002

 NODE       282  KCS=      0  X,Y,Z= 0.14550      0.14550      0.55000E-002

 NODE       283  KCS=      0  X,Y,Z= 0.14550      0.16550      0.55000E-002

 NODE       284  KCS=      0  X,Y,Z= 0.14550      0.18550      0.55000E-002

 NODE       285  KCS=      0  X,Y,Z= 0.14550      0.20550      0.55000E-002

 NODE       286  KCS=      0  X,Y,Z= 0.14550      0.22550      0.55000E-002

 NODE       287  KCS=      0  X,Y,Z= 0.16550     -0.14500E-001 0.55000E-002

 NODE       288  KCS=      0  X,Y,Z= 0.16550      0.55000E-002 0.55000E-002

 NODE       289  KCS=      0  X,Y,Z= 0.16550      0.25500E-001 0.55000E-002

 NODE       290  KCS=      0  X,Y,Z= 0.16550      0.45500E-001 0.55000E-002

 NODE       291  KCS=      0  X,Y,Z= 0.16550      0.65500E-001 0.55000E-002

 NODE       292  KCS=      0  X,Y,Z= 0.16550      0.85500E-001 0.55000E-002

 NODE       293  KCS=      0  X,Y,Z= 0.16550      0.10550      0.55000E-002

 NODE       294  KCS=      0  X,Y,Z= 0.16550      0.12550      0.55000E-002

 NODE       295  KCS=      0  X,Y,Z= 0.16550      0.14550      0.55000E-002

 NODE       296  KCS=      0  X,Y,Z= 0.16550      0.16550      0.55000E-002

 NODE       297  KCS=      0  X,Y,Z= 0.16550      0.18550      0.55000E-002

 NODE       298  KCS=      0  X,Y,Z= 0.16550      0.20550      0.55000E-002

 NODE       299  KCS=      0  X,Y,Z= 0.16550      0.22550      0.55000E-002

 NODE       300  KCS=      0  X,Y,Z= 0.18550     -0.14500E-001 0.55000E-002

 NODE       301  KCS=      0  X,Y,Z= 0.18550      0.55000E-002 0.55000E-002

 NODE       302  KCS=      0  X,Y,Z= 0.18550      0.25500E-001 0.55000E-002

 NODE       303  KCS=      0  X,Y,Z= 0.18550      0.45500E-001 0.55000E-002

 NODE       304  KCS=      0  X,Y,Z= 0.18550      0.65500E-001 0.55000E-002

 NODE       305  KCS=      0  X,Y,Z= 0.18550      0.85500E-001 0.55000E-002

 NODE       306  KCS=      0  X,Y,Z= 0.18550      0.10550      0.55000E-002

 NODE       307  KCS=      0  X,Y,Z= 0.18550      0.12550      0.55000E-002

 NODE       308  KCS=      0  X,Y,Z= 0.18550      0.14550      0.55000E-002

 NODE       309  KCS=      0  X,Y,Z= 0.18550      0.16550      0.55000E-002

 NODE       310  KCS=      0  X,Y,Z= 0.18550      0.18550      0.55000E-002

 NODE       311  KCS=      0  X,Y,Z= 0.18550      0.20550      0.55000E-002

 NODE       312  KCS=      0  X,Y,Z= 0.18550      0.22550      0.55000E-002

 NODE       313  KCS=      0  X,Y,Z= 0.20550     -0.14500E-001 0.55000E-002

 NODE       314  KCS=      0  X,Y,Z= 0.20550      0.55000E-002 0.55000E-002

 NODE       315  KCS=      0  X,Y,Z= 0.20550      0.25500E-001 0.55000E-002

 NODE       316  KCS=      0  X,Y,Z= 0.20550      0.45500E-001 0.55000E-002

 NODE       317  KCS=      0  X,Y,Z= 0.20550      0.65500E-001 0.55000E-002

 NODE       318  KCS=      0  X,Y,Z= 0.20550      0.85500E-001 0.55000E-002

 NODE       319  KCS=      0  X,Y,Z= 0.20550      0.10550      0.55000E-002

 NODE       320  KCS=      0  X,Y,Z= 0.20550      0.12550      0.55000E-002

 NODE       321  KCS=      0  X,Y,Z= 0.20550      0.14550      0.55000E-002

 NODE       322  KCS=      0  X,Y,Z= 0.20550      0.16550      0.55000E-002

 NODE       323  KCS=      0  X,Y,Z= 0.20550      0.18550      0.55000E-002

 NODE       324  KCS=      0  X,Y,Z= 0.20550      0.20550      0.55000E-002

 NODE       325  KCS=      0  X,Y,Z= 0.20550      0.22550      0.55000E-002

 NODE       326  KCS=      0  X,Y,Z= 0.22550     -0.14500E-001 0.55000E-002

 NODE       327  KCS=      0  X,Y,Z= 0.22550      0.55000E-002 0.55000E-002

 NODE       328  KCS=      0  X,Y,Z= 0.22550      0.25500E-001 0.55000E-002

 NODE       329  KCS=      0  X,Y,Z= 0.22550      0.45500E-001 0.55000E-002

 NODE       330  KCS=      0  X,Y,Z= 0.22550      0.65500E-001 0.55000E-002

 NODE       331  KCS=      0  X,Y,Z= 0.22550      0.85500E-001 0.55000E-002

 NODE       332  KCS=      0  X,Y,Z= 0.22550      0.10550      0.55000E-002

 NODE       333  KCS=      0  X,Y,Z= 0.22550      0.12550      0.55000E-002

 NODE       334  KCS=      0  X,Y,Z= 0.22550      0.14550      0.55000E-002

 NODE       335  KCS=      0  X,Y,Z= 0.22550      0.16550      0.55000E-002

 NODE       336  KCS=      0  X,Y,Z= 0.22550      0.18550      0.55000E-002

 NODE       337  KCS=      0  X,Y,Z= 0.22550      0.20550      0.55000E-002

 NODE       338  KCS=      0  X,Y,Z= 0.22550      0.22550      0.55000E-002

 NODE       339  KCS=      0  X,Y,Z=-0.14500E-001-0.14500E-001 0.25500E-001

 NODE       340  KCS=      0  X,Y,Z=-0.14500E-001 0.55000E-002 0.25500E-001

 NODE       341  KCS=      0  X,Y,Z=-0.14500E-001 0.25500E-001 0.25500E-001

 NODE       342  KCS=      0  X,Y,Z=-0.14500E-001 0.45500E-001 0.25500E-001

 NODE       343  KCS=      0  X,Y,Z=-0.14500E-001 0.65500E-001 0.25500E-001

 NODE       344  KCS=      0  X,Y,Z=-0.14500E-001 0.85500E-001 0.25500E-001

 NODE       345  KCS=      0  X,Y,Z=-0.14500E-001 0.10550      0.25500E-001

 NODE       346  KCS=      0  X,Y,Z=-0.14500E-001 0.12550      0.25500E-001

 NODE       347  KCS=      0  X,Y,Z=-0.14500E-001 0.14550      0.25500E-001

 NODE       348  KCS=      0  X,Y,Z=-0.14500E-001 0.16550      0.25500E-001

 NODE       349  KCS=      0  X,Y,Z=-0.14500E-001 0.18550      0.25500E-001

 NODE       350  KCS=      0  X,Y,Z=-0.14500E-001 0.20550      0.25500E-001

 NODE       351  KCS=      0  X,Y,Z=-0.14500E-001 0.22550      0.25500E-001

 NODE       352  KCS=      0  X,Y,Z= 0.55000E-002-0.14500E-001 0.25500E-001

 NODE       353  KCS=      0  X,Y,Z= 0.55000E-002 0.55000E-002 0.25500E-001

 NODE       354  KCS=      0  X,Y,Z= 0.55000E-002 0.25500E-001 0.25500E-001

 NODE       355  KCS=      0  X,Y,Z= 0.55000E-002 0.45500E-001 0.25500E-001

 NODE       356  KCS=      0  X,Y,Z= 0.55000E-002 0.65500E-001 0.25500E-001

 NODE       357  KCS=      0  X,Y,Z= 0.55000E-002 0.85500E-001 0.25500E-001

 NODE       358  KCS=      0  X,Y,Z= 0.55000E-002 0.10550      0.25500E-001

 NODE       359  KCS=      0  X,Y,Z= 0.55000E-002 0.12550      0.25500E-001

 NODE       360  KCS=      0  X,Y,Z= 0.55000E-002 0.14550      0.25500E-001

 NODE       361  KCS=      0  X,Y,Z= 0.55000E-002 0.16550      0.25500E-001

 NODE       362  KCS=      0  X,Y,Z= 0.55000E-002 0.18550      0.25500E-001

 NODE       363  KCS=      0  X,Y,Z= 0.55000E-002 0.20550      0.25500E-001

 NODE       364  KCS=      0  X,Y,Z= 0.55000E-002 0.22550      0.25500E-001

 NODE       365  KCS=      0  X,Y,Z= 0.25500E-001-0.14500E-001 0.25500E-001

 NODE       366  KCS=      0  X,Y,Z= 0.25500E-001 0.55000E-002 0.25500E-001

 NODE       367  KCS=      0  X,Y,Z= 0.25500E-001 0.25500E-001 0.25500E-001

 NODE       368  KCS=      0  X,Y,Z= 0.25500E-001 0.45500E-001 0.25500E-001

 NODE       369  KCS=      0  X,Y,Z= 0.25500E-001 0.65500E-001 0.25500E-001

 NODE       370  KCS=      0  X,Y,Z= 0.25500E-001 0.85500E-001 0.25500E-001

 NODE       371  KCS=      0  X,Y,Z= 0.25500E-001 0.10550      0.25500E-001

 NODE       372  KCS=      0  X,Y,Z= 0.25500E-001 0.12550      0.25500E-001

 NODE       373  KCS=      0  X,Y,Z= 0.25500E-001 0.14550      0.25500E-001

 NODE       374  KCS=      0  X,Y,Z= 0.25500E-001 0.16550      0.25500E-001

 NODE       375  KCS=      0  X,Y,Z= 0.25500E-001 0.18550      0.25500E-001

 NODE       376  KCS=      0  X,Y,Z= 0.25500E-001 0.20550      0.25500E-001

 NODE       377  KCS=      0  X,Y,Z= 0.25500E-001 0.22550      0.25500E-001

 NODE       378  KCS=      0  X,Y,Z= 0.45500E-001-0.14500E-001 0.25500E-001

 NODE       379  KCS=      0  X,Y,Z= 0.45500E-001 0.55000E-002 0.25500E-001

 NODE       380  KCS=      0  X,Y,Z= 0.45500E-001 0.25500E-001 0.25500E-001

 NODE       381  KCS=      0  X,Y,Z= 0.45500E-001 0.45500E-001 0.25500E-001

 NODE       382  KCS=      0  X,Y,Z= 0.45500E-001 0.65500E-001 0.25500E-001

 NODE       383  KCS=      0  X,Y,Z= 0.45500E-001 0.85500E-001 0.25500E-001

 NODE       384  KCS=      0  X,Y,Z= 0.45500E-001 0.10550      0.25500E-001

 NODE       385  KCS=      0  X,Y,Z= 0.45500E-001 0.12550      0.25500E-001

 NODE       386  KCS=      0  X,Y,Z= 0.45500E-001 0.14550      0.25500E-001

 NODE       387  KCS=      0  X,Y,Z= 0.45500E-001 0.16550      0.25500E-001

 NODE       388  KCS=      0  X,Y,Z= 0.45500E-001 0.18550      0.25500E-001

 NODE       389  KCS=      0  X,Y,Z= 0.45500E-001 0.20550      0.25500E-001

 NODE       390  KCS=      0  X,Y,Z= 0.45500E-001 0.22550      0.25500E-001

 NODE       391  KCS=      0  X,Y,Z= 0.65500E-001-0.14500E-001 0.25500E-001

 NODE       392  KCS=      0  X,Y,Z= 0.65500E-001 0.55000E-002 0.25500E-001

 NODE       393  KCS=      0  X,Y,Z= 0.65500E-001 0.25500E-001 0.25500E-001

 NODE       394  KCS=      0  X,Y,Z= 0.65500E-001 0.45500E-001 0.25500E-001

 NODE       395  KCS=      0  X,Y,Z= 0.65500E-001 0.65500E-001 0.25500E-001

 NODE       396  KCS=      0  X,Y,Z= 0.65500E-001 0.85500E-001 0.25500E-001

 NODE       397  KCS=      0  X,Y,Z= 0.65500E-001 0.10550      0.25500E-001

 NODE       398  KCS=      0  X,Y,Z= 0.65500E-001 0.12550      0.25500E-001

 NODE       399  KCS=      0  X,Y,Z= 0.65500E-001 0.14550      0.25500E-001

 NODE       400  KCS=      0  X,Y,Z= 0.65500E-001 0.16550      0.25500E-001

 NODE       401  KCS=      0  X,Y,Z= 0.65500E-001 0.18550      0.25500E-001

 NODE       402  KCS=      0  X,Y,Z= 0.65500E-001 0.20550      0.25500E-001

 NODE       403  KCS=      0  X,Y,Z= 0.65500E-001 0.22550      0.25500E-001

 NODE       404  KCS=      0  X,Y,Z= 0.85500E-001-0.14500E-001 0.25500E-001

 NODE       405  KCS=      0  X,Y,Z= 0.85500E-001 0.55000E-002 0.25500E-001

 NODE       406  KCS=      0  X,Y,Z= 0.85500E-001 0.25500E-001 0.25500E-001

 NODE       407  KCS=      0  X,Y,Z= 0.85500E-001 0.45500E-001 0.25500E-001

 NODE       408  KCS=      0  X,Y,Z= 0.85500E-001 0.65500E-001 0.25500E-001

 NODE       409  KCS=      0  X,Y,Z= 0.85500E-001 0.85500E-001 0.25500E-001

 NODE       410  KCS=      0  X,Y,Z= 0.85500E-001 0.10550      0.25500E-001

 NODE       411  KCS=      0  X,Y,Z= 0.85500E-001 0.12550      0.25500E-001

 NODE       412  KCS=      0  X,Y,Z= 0.85500E-001 0.14550      0.25500E-001

 NODE       413  KCS=      0  X,Y,Z= 0.85500E-001 0.16550      0.25500E-001

 NODE       414  KCS=      0  X,Y,Z= 0.85500E-001 0.18550      0.25500E-001

 NODE       415  KCS=      0  X,Y,Z= 0.85500E-001 0.20550      0.25500E-001

 NODE       416  KCS=      0  X,Y,Z= 0.85500E-001 0.22550      0.25500E-001

 NODE       417  KCS=      0  X,Y,Z= 0.10550     -0.14500E-001 0.25500E-001

 NODE       418  KCS=      0  X,Y,Z= 0.10550      0.55000E-002 0.25500E-001

 NODE       419  KCS=      0  X,Y,Z= 0.10550      0.25500E-001 0.25500E-001

 NODE       420  KCS=      0  X,Y,Z= 0.10550      0.45500E-001 0.25500E-001

 NODE       421  KCS=      0  X,Y,Z= 0.10550      0.65500E-001 0.25500E-001

 NODE       422  KCS=      0  X,Y,Z= 0.10550      0.85500E-001 0.25500E-001

 NODE       423  KCS=      0  X,Y,Z= 0.10550      0.10550      0.25500E-001

 NODE       424  KCS=      0  X,Y,Z= 0.10550      0.12550      0.25500E-001

 NODE       425  KCS=      0  X,Y,Z= 0.10550      0.14550      0.25500E-001

 NODE       426  KCS=      0  X,Y,Z= 0.10550      0.16550      0.25500E-001

 NODE       427  KCS=      0  X,Y,Z= 0.10550      0.18550      0.25500E-001

 NODE       428  KCS=      0  X,Y,Z= 0.10550      0.20550      0.25500E-001

 NODE       429  KCS=      0  X,Y,Z= 0.10550      0.22550      0.25500E-001

 NODE       430  KCS=      0  X,Y,Z= 0.12550     -0.14500E-001 0.25500E-001

 NODE       431  KCS=      0  X,Y,Z= 0.12550      0.55000E-002 0.25500E-001

 NODE       432  KCS=      0  X,Y,Z= 0.12550      0.25500E-001 0.25500E-001

 NODE       433  KCS=      0  X,Y,Z= 0.12550      0.45500E-001 0.25500E-001

 NODE       434  KCS=      0  X,Y,Z= 0.12550      0.65500E-001 0.25500E-001

 NODE       435  KCS=      0  X,Y,Z= 0.12550      0.85500E-001 0.25500E-001

 NODE       436  KCS=      0  X,Y,Z= 0.12550      0.10550      0.25500E-001

 NODE       437  KCS=      0  X,Y,Z= 0.12550      0.12550      0.25500E-001

 NODE       438  KCS=      0  X,Y,Z= 0.12550      0.14550      0.25500E-001

 NODE       439  KCS=      0  X,Y,Z= 0.12550      0.16550      0.25500E-001

 NODE       440  KCS=      0  X,Y,Z= 0.12550      0.18550      0.25500E-001

 NODE       441  KCS=      0  X,Y,Z= 0.12550      0.20550      0.25500E-001

 NODE       442  KCS=      0  X,Y,Z= 0.12550      0.22550      0.25500E-001

 NODE       443  KCS=      0  X,Y,Z= 0.14550     -0.14500E-001 0.25500E-001

 NODE       444  KCS=      0  X,Y,Z= 0.14550      0.55000E-002 0.25500E-001

 NODE       445  KCS=      0  X,Y,Z= 0.14550      0.25500E-001 0.25500E-001

 NODE       446  KCS=      0  X,Y,Z= 0.14550      0.45500E-001 0.25500E-001

 NODE       447  KCS=      0  X,Y,Z= 0.14550      0.65500E-001 0.25500E-001

 NODE       448  KCS=      0  X,Y,Z= 0.14550      0.85500E-001 0.25500E-001

 NODE       449  KCS=      0  X,Y,Z= 0.14550      0.10550      0.25500E-001

 NODE       450  KCS=      0  X,Y,Z= 0.14550      0.12550      0.25500E-001

 NODE       451  KCS=      0  X,Y,Z= 0.14550      0.14550      0.25500E-001

 NODE       452  KCS=      0  X,Y,Z= 0.14550      0.16550      0.25500E-001

 NODE       453  KCS=      0  X,Y,Z= 0.14550      0.18550      0.25500E-001

 NODE       454  KCS=      0  X,Y,Z= 0.14550      0.20550      0.25500E-001

 NODE       455  KCS=      0  X,Y,Z= 0.14550      0.22550      0.25500E-001

 NODE       456  KCS=      0  X,Y,Z= 0.16550     -0.14500E-001 0.25500E-001

 NODE       457  KCS=      0  X,Y,Z= 0.16550      0.55000E-002 0.25500E-001

 NODE       458  KCS=      0  X,Y,Z= 0.16550      0.25500E-001 0.25500E-001

 NODE       459  KCS=      0  X,Y,Z= 0.16550      0.45500E-001 0.25500E-001

 NODE       460  KCS=      0  X,Y,Z= 0.16550      0.65500E-001 0.25500E-001

 NODE       461  KCS=      0  X,Y,Z= 0.16550      0.85500E-001 0.25500E-001

 NODE       462  KCS=      0  X,Y,Z= 0.16550      0.10550      0.25500E-001

 NODE       463  KCS=      0  X,Y,Z= 0.16550      0.12550      0.25500E-001

 NODE       464  KCS=      0  X,Y,Z= 0.16550      0.14550      0.25500E-001

 NODE       465  KCS=      0  X,Y,Z= 0.16550      0.16550      0.25500E-001

 NODE       466  KCS=      0  X,Y,Z= 0.16550      0.18550      0.25500E-001

 NODE       467  KCS=      0  X,Y,Z= 0.16550      0.20550      0.25500E-001

 NODE       468  KCS=      0  X,Y,Z= 0.16550      0.22550      0.25500E-001

 NODE       469  KCS=      0  X,Y,Z= 0.18550     -0.14500E-001 0.25500E-001

 NODE       470  KCS=      0  X,Y,Z= 0.18550      0.55000E-002 0.25500E-001

 NODE       471  KCS=      0  X,Y,Z= 0.18550      0.25500E-001 0.25500E-001

 NODE       472  KCS=      0  X,Y,Z= 0.18550      0.45500E-001 0.25500E-001

 NODE       473  KCS=      0  X,Y,Z= 0.18550      0.65500E-001 0.25500E-001

 NODE       474  KCS=      0  X,Y,Z= 0.18550      0.85500E-001 0.25500E-001

 NODE       475  KCS=      0  X,Y,Z= 0.18550      0.10550      0.25500E-001

 NODE       476  KCS=      0  X,Y,Z= 0.18550      0.12550      0.25500E-001

 NODE       477  KCS=      0  X,Y,Z= 0.18550      0.14550      0.25500E-001

 NODE       478  KCS=      0  X,Y,Z= 0.18550      0.16550      0.25500E-001

 NODE       479  KCS=      0  X,Y,Z= 0.18550      0.18550      0.25500E-001

 NODE       480  KCS=      0  X,Y,Z= 0.18550      0.20550      0.25500E-001

 NODE       481  KCS=      0  X,Y,Z= 0.18550      0.22550      0.25500E-001

 NODE       482  KCS=      0  X,Y,Z= 0.20550     -0.14500E-001 0.25500E-001

 NODE       483  KCS=      0  X,Y,Z= 0.20550      0.55000E-002 0.25500E-001

 NODE       484  KCS=      0  X,Y,Z= 0.20550      0.25500E-001 0.25500E-001

 NODE       485  KCS=      0  X,Y,Z= 0.20550      0.45500E-001 0.25500E-001

 NODE       486  KCS=      0  X,Y,Z= 0.20550      0.65500E-001 0.25500E-001

 NODE       487  KCS=      0  X,Y,Z= 0.20550      0.85500E-001 0.25500E-001

 NODE       488  KCS=      0  X,Y,Z= 0.20550      0.10550      0.25500E-001

 NODE       489  KCS=      0  X,Y,Z= 0.20550      0.12550      0.25500E-001

 NODE       490  KCS=      0  X,Y,Z= 0.20550      0.14550      0.25500E-001

 NODE       491  KCS=      0  X,Y,Z= 0.20550      0.16550      0.25500E-001

 NODE       492  KCS=      0  X,Y,Z= 0.20550      0.18550      0.25500E-001

 NODE       493  KCS=      0  X,Y,Z= 0.20550      0.20550      0.25500E-001

 NODE       494  KCS=      0  X,Y,Z= 0.20550      0.22550      0.25500E-001

 NODE       495  KCS=      0  X,Y,Z= 0.22550     -0.14500E-001 0.25500E-001

 NODE       496  KCS=      0  X,Y,Z= 0.22550      0.55000E-002 0.25500E-001

 NODE       497  KCS=      0  X,Y,Z= 0.22550      0.25500E-001 0.25500E-001

 NODE       498  KCS=      0  X,Y,Z= 0.22550      0.45500E-001 0.25500E-001

 NODE       499  KCS=      0  X,Y,Z= 0.22550      0.65500E-001 0.25500E-001

 NODE       500  KCS=      0  X,Y,Z= 0.22550      0.85500E-001 0.25500E-001

 NODE       501  KCS=      0  X,Y,Z= 0.22550      0.10550      0.25500E-001

 NODE       502  KCS=      0  X,Y,Z= 0.22550      0.12550      0.25500E-001

 NODE       503  KCS=      0  X,Y,Z= 0.22550      0.14550      0.25500E-001

 NODE       504  KCS=      0  X,Y,Z= 0.22550      0.16550      0.25500E-001

 NODE       505  KCS=      0  X,Y,Z= 0.22550      0.18550      0.25500E-001

 NODE       506  KCS=      0  X,Y,Z= 0.22550      0.20550      0.25500E-001

 NODE       507  KCS=      0  X,Y,Z= 0.22550      0.22550      0.25500E-001

 NODE       508  KCS=      0  X,Y,Z=-0.14500E-001-0.14500E-001 0.45500E-001

 NODE       509  KCS=      0  X,Y,Z=-0.14500E-001 0.55000E-002 0.45500E-001

 NODE       510  KCS=      0  X,Y,Z=-0.14500E-001 0.25500E-001 0.45500E-001

 NODE       511  KCS=      0  X,Y,Z=-0.14500E-001 0.45500E-001 0.45500E-001

 NODE       512  KCS=      0  X,Y,Z=-0.14500E-001 0.65500E-001 0.45500E-001

 NODE       513  KCS=      0  X,Y,Z=-0.14500E-001 0.85500E-001 0.45500E-001

 NODE       514  KCS=      0  X,Y,Z=-0.14500E-001 0.10550      0.45500E-001

 NODE       515  KCS=      0  X,Y,Z=-0.14500E-001 0.12550      0.45500E-001

 NODE       516  KCS=      0  X,Y,Z=-0.14500E-001 0.14550      0.45500E-001

 NODE       517  KCS=      0  X,Y,Z=-0.14500E-001 0.16550      0.45500E-001

 NODE       518  KCS=      0  X,Y,Z=-0.14500E-001 0.18550      0.45500E-001

 NODE       519  KCS=      0  X,Y,Z=-0.14500E-001 0.20550      0.45500E-001

 NODE       520  KCS=      0  X,Y,Z=-0.14500E-001 0.22550      0.45500E-001

 NODE       521  KCS=      0  X,Y,Z= 0.55000E-002-0.14500E-001 0.45500E-001

 NODE       522  KCS=      0  X,Y,Z= 0.55000E-002 0.55000E-002 0.45500E-001

 NODE       523  KCS=      0  X,Y,Z= 0.55000E-002 0.25500E-001 0.45500E-001

 NODE       524  KCS=      0  X,Y,Z= 0.55000E-002 0.45500E-001 0.45500E-001

 NODE       525  KCS=      0  X,Y,Z= 0.55000E-002 0.65500E-001 0.45500E-001

 NODE       526  KCS=      0  X,Y,Z= 0.55000E-002 0.85500E-001 0.45500E-001

 NODE       527  KCS=      0  X,Y,Z= 0.55000E-002 0.10550      0.45500E-001

 NODE       528  KCS=      0  X,Y,Z= 0.55000E-002 0.12550      0.45500E-001

 NODE       529  KCS=      0  X,Y,Z= 0.55000E-002 0.14550      0.45500E-001

 NODE       530  KCS=      0  X,Y,Z= 0.55000E-002 0.16550      0.45500E-001

 NODE       531  KCS=      0  X,Y,Z= 0.55000E-002 0.18550      0.45500E-001

 NODE       532  KCS=      0  X,Y,Z= 0.55000E-002 0.20550      0.45500E-001

 NODE       533  KCS=      0  X,Y,Z= 0.55000E-002 0.22550      0.45500E-001

 NODE       534  KCS=      0  X,Y,Z= 0.25500E-001-0.14500E-001 0.45500E-001

 NODE       535  KCS=      0  X,Y,Z= 0.25500E-001 0.55000E-002 0.45500E-001

 NODE       536  KCS=      0  X,Y,Z= 0.25500E-001 0.25500E-001 0.45500E-001

 NODE       537  KCS=      0  X,Y,Z= 0.25500E-001 0.45500E-001 0.45500E-001

 NODE       538  KCS=      0  X,Y,Z= 0.25500E-001 0.65500E-001 0.45500E-001

 NODE       539  KCS=      0  X,Y,Z= 0.25500E-001 0.85500E-001 0.45500E-001

 NODE       540  KCS=      0  X,Y,Z= 0.25500E-001 0.10550      0.45500E-001

 NODE       541  KCS=      0  X,Y,Z= 0.25500E-001 0.12550      0.45500E-001

 NODE       542  KCS=      0  X,Y,Z= 0.25500E-001 0.14550      0.45500E-001

 NODE       543  KCS=      0  X,Y,Z= 0.25500E-001 0.16550      0.45500E-001

 NODE       544  KCS=      0  X,Y,Z= 0.25500E-001 0.18550      0.45500E-001

 NODE       545  KCS=      0  X,Y,Z= 0.25500E-001 0.20550      0.45500E-001

 NODE       546  KCS=      0  X,Y,Z= 0.25500E-001 0.22550      0.45500E-001

 NODE       547  KCS=      0  X,Y,Z= 0.45500E-001-0.14500E-001 0.45500E-001

 NODE       548  KCS=      0  X,Y,Z= 0.45500E-001 0.55000E-002 0.45500E-001

 NODE       549  KCS=      0  X,Y,Z= 0.45500E-001 0.25500E-001 0.45500E-001

 NODE       550  KCS=      0  X,Y,Z= 0.45500E-001 0.45500E-001 0.45500E-001

 NODE       551  KCS=      0  X,Y,Z= 0.45500E-001 0.65500E-001 0.45500E-001

 NODE       552  KCS=      0  X,Y,Z= 0.45500E-001 0.85500E-001 0.45500E-001

 NODE       553  KCS=      0  X,Y,Z= 0.45500E-001 0.10550      0.45500E-001

 NODE       554  KCS=      0  X,Y,Z= 0.45500E-001 0.12550      0.45500E-001

 NODE       555  KCS=      0  X,Y,Z= 0.45500E-001 0.14550      0.45500E-001

 NODE       556  KCS=      0  X,Y,Z= 0.45500E-001 0.16550      0.45500E-001

 NODE       557  KCS=      0  X,Y,Z= 0.45500E-001 0.18550      0.45500E-001

 NODE       558  KCS=      0  X,Y,Z= 0.45500E-001 0.20550      0.45500E-001

 NODE       559  KCS=      0  X,Y,Z= 0.45500E-001 0.22550      0.45500E-001

 NODE       560  KCS=      0  X,Y,Z= 0.65500E-001-0.14500E-001 0.45500E-001

 NODE       561  KCS=      0  X,Y,Z= 0.65500E-001 0.55000E-002 0.45500E-001

 NODE       562  KCS=      0  X,Y,Z= 0.65500E-001 0.25500E-001 0.45500E-001

 NODE       563  KCS=      0  X,Y,Z= 0.65500E-001 0.45500E-001 0.45500E-001

 NODE       564  KCS=      0  X,Y,Z= 0.65500E-001 0.65500E-001 0.45500E-001

 NODE       565  KCS=      0  X,Y,Z= 0.65500E-001 0.85500E-001 0.45500E-001

 NODE       566  KCS=      0  X,Y,Z= 0.65500E-001 0.10550      0.45500E-001

 NODE       567  KCS=      0  X,Y,Z= 0.65500E-001 0.12550      0.45500E-001

 NODE       568  KCS=      0  X,Y,Z= 0.65500E-001 0.14550      0.45500E-001

 NODE       569  KCS=      0  X,Y,Z= 0.65500E-001 0.16550      0.45500E-001

 NODE       570  KCS=      0  X,Y,Z= 0.65500E-001 0.18550      0.45500E-001

 NODE       571  KCS=      0  X,Y,Z= 0.65500E-001 0.20550      0.45500E-001

 NODE       572  KCS=      0  X,Y,Z= 0.65500E-001 0.22550      0.45500E-001

 NODE       573  KCS=      0  X,Y,Z= 0.85500E-001-0.14500E-001 0.45500E-001

 NODE       574  KCS=      0  X,Y,Z= 0.85500E-001 0.55000E-002 0.45500E-001

 NODE       575  KCS=      0  X,Y,Z= 0.85500E-001 0.25500E-001 0.45500E-001

 NODE       576  KCS=      0  X,Y,Z= 0.85500E-001 0.45500E-001 0.45500E-001

 NODE       577  KCS=      0  X,Y,Z= 0.85500E-001 0.65500E-001 0.45500E-001

 NODE       578  KCS=      0  X,Y,Z= 0.85500E-001 0.85500E-001 0.45500E-001

 NODE       579  KCS=      0  X,Y,Z= 0.85500E-001 0.10550      0.45500E-001

 NODE       580  KCS=      0  X,Y,Z= 0.85500E-001 0.12550      0.45500E-001

 NODE       581  KCS=      0  X,Y,Z= 0.85500E-001 0.14550      0.45500E-001

 NODE       582  KCS=      0  X,Y,Z= 0.85500E-001 0.16550      0.45500E-001

 NODE       583  KCS=      0  X,Y,Z= 0.85500E-001 0.18550      0.45500E-001

 NODE       584  KCS=      0  X,Y,Z= 0.85500E-001 0.20550      0.45500E-001

 NODE       585  KCS=      0  X,Y,Z= 0.85500E-001 0.22550      0.45500E-001

 NODE       586  KCS=      0  X,Y,Z= 0.10550     -0.14500E-001 0.45500E-001

 NODE       587  KCS=      0  X,Y,Z= 0.10550      0.55000E-002 0.45500E-001

 NODE       588  KCS=      0  X,Y,Z= 0.10550      0.25500E-001 0.45500E-001

 NODE       589  KCS=      0  X,Y,Z= 0.10550      0.45500E-001 0.45500E-001

 NODE       590  KCS=      0  X,Y,Z= 0.10550      0.65500E-001 0.45500E-001

 NODE       591  KCS=      0  X,Y,Z= 0.10550      0.85500E-001 0.45500E-001

 NODE       592  KCS=      0  X,Y,Z= 0.10550      0.10550      0.45500E-001

 NODE       593  KCS=      0  X,Y,Z= 0.10550      0.12550      0.45500E-001

 NODE       594  KCS=      0  X,Y,Z= 0.10550      0.14550      0.45500E-001

 NODE       595  KCS=      0  X,Y,Z= 0.10550      0.16550      0.45500E-001

 NODE       596  KCS=      0  X,Y,Z= 0.10550      0.18550      0.45500E-001

 NODE       597  KCS=      0  X,Y,Z= 0.10550      0.20550      0.45500E-001

 NODE       598  KCS=      0  X,Y,Z= 0.10550      0.22550      0.45500E-001

 NODE       599  KCS=      0  X,Y,Z= 0.12550     -0.14500E-001 0.45500E-001

 NODE       600  KCS=      0  X,Y,Z= 0.12550      0.55000E-002 0.45500E-001

 NODE       601  KCS=      0  X,Y,Z= 0.12550      0.25500E-001 0.45500E-001

 NODE       602  KCS=      0  X,Y,Z= 0.12550      0.45500E-001 0.45500E-001

 NODE       603  KCS=      0  X,Y,Z= 0.12550      0.65500E-001 0.45500E-001

 NODE       604  KCS=      0  X,Y,Z= 0.12550      0.85500E-001 0.45500E-001

 NODE       605  KCS=      0  X,Y,Z= 0.12550      0.10550      0.45500E-001

 NODE       606  KCS=      0  X,Y,Z= 0.12550      0.12550      0.45500E-001

 NODE       607  KCS=      0  X,Y,Z= 0.12550      0.14550      0.45500E-001

 NODE       608  KCS=      0  X,Y,Z= 0.12550      0.16550      0.45500E-001

 NODE       609  KCS=      0  X,Y,Z= 0.12550      0.18550      0.45500E-001

 NODE       610  KCS=      0  X,Y,Z= 0.12550      0.20550      0.45500E-001

 NODE       611  KCS=      0  X,Y,Z= 0.12550      0.22550      0.45500E-001

 NODE       612  KCS=      0  X,Y,Z= 0.14550     -0.14500E-001 0.45500E-001

 NODE       613  KCS=      0  X,Y,Z= 0.14550      0.55000E-002 0.45500E-001

 NODE       614  KCS=      0  X,Y,Z= 0.14550      0.25500E-001 0.45500E-001

 NODE       615  KCS=      0  X,Y,Z= 0.14550      0.45500E-001 0.45500E-001

 NODE       616  KCS=      0  X,Y,Z= 0.14550      0.65500E-001 0.45500E-001

 NODE       617  KCS=      0  X,Y,Z= 0.14550      0.85500E-001 0.45500E-001

 NODE       618  KCS=      0  X,Y,Z= 0.14550      0.10550      0.45500E-001

 NODE       619  KCS=      0  X,Y,Z= 0.14550      0.12550      0.45500E-001

 NODE       620  KCS=      0  X,Y,Z= 0.14550      0.14550      0.45500E-001

 NODE       621  KCS=      0  X,Y,Z= 0.14550      0.16550      0.45500E-001

 NODE       622  KCS=      0  X,Y,Z= 0.14550      0.18550      0.45500E-001

 NODE       623  KCS=      0  X,Y,Z= 0.14550      0.20550      0.45500E-001

 NODE       624  KCS=      0  X,Y,Z= 0.14550      0.22550      0.45500E-001

 NODE       625  KCS=      0  X,Y,Z= 0.16550     -0.14500E-001 0.45500E-001

 NODE       626  KCS=      0  X,Y,Z= 0.16550      0.55000E-002 0.45500E-001

 NODE       627  KCS=      0  X,Y,Z= 0.16550      0.25500E-001 0.45500E-001

 NODE       628  KCS=      0  X,Y,Z= 0.16550      0.45500E-001 0.45500E-001

 NODE       629  KCS=      0  X,Y,Z= 0.16550      0.65500E-001 0.45500E-001

 NODE       630  KCS=      0  X,Y,Z= 0.16550      0.85500E-001 0.45500E-001

 NODE       631  KCS=      0  X,Y,Z= 0.16550      0.10550      0.45500E-001

 NODE       632  KCS=      0  X,Y,Z= 0.16550      0.12550      0.45500E-001

 NODE       633  KCS=      0  X,Y,Z= 0.16550      0.14550      0.45500E-001

 NODE       634  KCS=      0  X,Y,Z= 0.16550      0.16550      0.45500E-001

 NODE       635  KCS=      0  X,Y,Z= 0.16550      0.18550      0.45500E-001

 NODE       636  KCS=      0  X,Y,Z= 0.16550      0.20550      0.45500E-001

 NODE       637  KCS=      0  X,Y,Z= 0.16550      0.22550      0.45500E-001

 NODE       638  KCS=      0  X,Y,Z= 0.18550     -0.14500E-001 0.45500E-001

 NODE       639  KCS=      0  X,Y,Z= 0.18550      0.55000E-002 0.45500E-001

 NODE       640  KCS=      0  X,Y,Z= 0.18550      0.25500E-001 0.45500E-001

 NODE       641  KCS=      0  X,Y,Z= 0.18550      0.45500E-001 0.45500E-001

 NODE       642  KCS=      0  X,Y,Z= 0.18550      0.65500E-001 0.45500E-001

 NODE       643  KCS=      0  X,Y,Z= 0.18550      0.85500E-001 0.45500E-001

 NODE       644  KCS=      0  X,Y,Z= 0.18550      0.10550      0.45500E-001

 NODE       645  KCS=      0  X,Y,Z= 0.18550      0.12550      0.45500E-001

 NODE       646  KCS=      0  X,Y,Z= 0.18550      0.14550      0.45500E-001

 NODE       647  KCS=      0  X,Y,Z= 0.18550      0.16550      0.45500E-001

 NODE       648  KCS=      0  X,Y,Z= 0.18550      0.18550      0.45500E-001

 NODE       649  KCS=      0  X,Y,Z= 0.18550      0.20550      0.45500E-001

 NODE       650  KCS=      0  X,Y,Z= 0.18550      0.22550      0.45500E-001

 NODE       651  KCS=      0  X,Y,Z= 0.20550     -0.14500E-001 0.45500E-001

 NODE       652  KCS=      0  X,Y,Z= 0.20550      0.55000E-002 0.45500E-001

 NODE       653  KCS=      0  X,Y,Z= 0.20550      0.25500E-001 0.45500E-001

 NODE       654  KCS=      0  X,Y,Z= 0.20550      0.45500E-001 0.45500E-001

 NODE       655  KCS=      0  X,Y,Z= 0.20550      0.65500E-001 0.45500E-001

 NODE       656  KCS=      0  X,Y,Z= 0.20550      0.85500E-001 0.45500E-001

 NODE       657  KCS=      0  X,Y,Z= 0.20550      0.10550      0.45500E-001

 NODE       658  KCS=      0  X,Y,Z= 0.20550      0.12550      0.45500E-001

 NODE       659  KCS=      0  X,Y,Z= 0.20550      0.14550      0.45500E-001

 NODE       660  KCS=      0  X,Y,Z= 0.20550      0.16550      0.45500E-001

 NODE       661  KCS=      0  X,Y,Z= 0.20550      0.18550      0.45500E-001

 NODE       662  KCS=      0  X,Y,Z= 0.20550      0.20550      0.45500E-001

 NODE       663  KCS=      0  X,Y,Z= 0.20550      0.22550      0.45500E-001

 NODE       664  KCS=      0  X,Y,Z= 0.22550     -0.14500E-001 0.45500E-001

 NODE       665  KCS=      0  X,Y,Z= 0.22550      0.55000E-002 0.45500E-001

 NODE       666  KCS=      0  X,Y,Z= 0.22550      0.25500E-001 0.45500E-001

 NODE       667  KCS=      0  X,Y,Z= 0.22550      0.45500E-001 0.45500E-001

 NODE       668  KCS=      0  X,Y,Z= 0.22550      0.65500E-001 0.45500E-001

 NODE       669  KCS=      0  X,Y,Z= 0.22550      0.85500E-001 0.45500E-001

 NODE       670  KCS=      0  X,Y,Z= 0.22550      0.10550      0.45500E-001

 NODE       671  KCS=      0  X,Y,Z= 0.22550      0.12550      0.45500E-001

 NODE       672  KCS=      0  X,Y,Z= 0.22550      0.14550      0.45500E-001

 NODE       673  KCS=      0  X,Y,Z= 0.22550      0.16550      0.45500E-001

 NODE       674  KCS=      0  X,Y,Z= 0.22550      0.18550      0.45500E-001

 NODE       675  KCS=      0  X,Y,Z= 0.22550      0.20550      0.45500E-001

 NODE       676  KCS=      0  X,Y,Z= 0.22550      0.22550      0.45500E-001

 NODE       677  KCS=      0  X,Y,Z=-0.14500E-001-0.14500E-001 0.65500E-001

 NODE       678  KCS=      0  X,Y,Z=-0.14500E-001 0.55000E-002 0.65500E-001

 NODE       679  KCS=      0  X,Y,Z=-0.14500E-001 0.25500E-001 0.65500E-001

 NODE       680  KCS=      0  X,Y,Z=-0.14500E-001 0.45500E-001 0.65500E-001

 NODE       681  KCS=      0  X,Y,Z=-0.14500E-001 0.65500E-001 0.65500E-001

 NODE       682  KCS=      0  X,Y,Z=-0.14500E-001 0.85500E-001 0.65500E-001

 NODE       683  KCS=      0  X,Y,Z=-0.14500E-001 0.10550      0.65500E-001

 NODE       684  KCS=      0  X,Y,Z=-0.14500E-001 0.12550      0.65500E-001

 NODE       685  KCS=      0  X,Y,Z=-0.14500E-001 0.14550      0.65500E-001

 NODE       686  KCS=      0  X,Y,Z=-0.14500E-001 0.16550      0.65500E-001

 NODE       687  KCS=      0  X,Y,Z=-0.14500E-001 0.18550      0.65500E-001

 NODE       688  KCS=      0  X,Y,Z=-0.14500E-001 0.20550      0.65500E-001

 NODE       689  KCS=      0  X,Y,Z=-0.14500E-001 0.22550      0.65500E-001

 NODE       690  KCS=      0  X,Y,Z= 0.55000E-002-0.14500E-001 0.65500E-001

 NODE       691  KCS=      0  X,Y,Z= 0.55000E-002 0.55000E-002 0.65500E-001

 NODE       692  KCS=      0  X,Y,Z= 0.55000E-002 0.25500E-001 0.65500E-001

 NODE       693  KCS=      0  X,Y,Z= 0.55000E-002 0.45500E-001 0.65500E-001

 NODE       694  KCS=      0  X,Y,Z= 0.55000E-002 0.65500E-001 0.65500E-001

 NODE       695  KCS=      0  X,Y,Z= 0.55000E-002 0.85500E-001 0.65500E-001

 NODE       696  KCS=      0  X,Y,Z= 0.55000E-002 0.10550      0.65500E-001

 NODE       697  KCS=      0  X,Y,Z= 0.55000E-002 0.12550      0.65500E-001

 NODE       698  KCS=      0  X,Y,Z= 0.55000E-002 0.14550      0.65500E-001

 NODE       699  KCS=      0  X,Y,Z= 0.55000E-002 0.16550      0.65500E-001

 NODE       700  KCS=      0  X,Y,Z= 0.55000E-002 0.18550      0.65500E-001

 NODE       701  KCS=      0  X,Y,Z= 0.55000E-002 0.20550      0.65500E-001

 NODE       702  KCS=      0  X,Y,Z= 0.55000E-002 0.22550      0.65500E-001

 NODE       703  KCS=      0  X,Y,Z= 0.25500E-001-0.14500E-001 0.65500E-001

 NODE       704  KCS=      0  X,Y,Z= 0.25500E-001 0.55000E-002 0.65500E-001

 NODE       705  KCS=      0  X,Y,Z= 0.25500E-001 0.25500E-001 0.65500E-001

 NODE       706  KCS=      0  X,Y,Z= 0.25500E-001 0.45500E-001 0.65500E-001

 NODE       707  KCS=      0  X,Y,Z= 0.25500E-001 0.65500E-001 0.65500E-001

 NODE       708  KCS=      0  X,Y,Z= 0.25500E-001 0.85500E-001 0.65500E-001

 NODE       709  KCS=      0  X,Y,Z= 0.25500E-001 0.10550      0.65500E-001

 NODE       710  KCS=      0  X,Y,Z= 0.25500E-001 0.12550      0.65500E-001

 NODE       711  KCS=      0  X,Y,Z= 0.25500E-001 0.14550      0.65500E-001

 NODE       712  KCS=      0  X,Y,Z= 0.25500E-001 0.16550      0.65500E-001

 NODE       713  KCS=      0  X,Y,Z= 0.25500E-001 0.18550      0.65500E-001

 NODE       714  KCS=      0  X,Y,Z= 0.25500E-001 0.20550      0.65500E-001

 NODE       715  KCS=      0  X,Y,Z= 0.25500E-001 0.22550      0.65500E-001

 NODE       716  KCS=      0  X,Y,Z= 0.45500E-001-0.14500E-001 0.65500E-001

 NODE       717  KCS=      0  X,Y,Z= 0.45500E-001 0.55000E-002 0.65500E-001

 NODE       718  KCS=      0  X,Y,Z= 0.45500E-001 0.25500E-001 0.65500E-001

 NODE       719  KCS=      0  X,Y,Z= 0.45500E-001 0.45500E-001 0.65500E-001

 NODE       720  KCS=      0  X,Y,Z= 0.45500E-001 0.65500E-001 0.65500E-001

 NODE       721  KCS=      0  X,Y,Z= 0.45500E-001 0.85500E-001 0.65500E-001

 NODE       722  KCS=      0  X,Y,Z= 0.45500E-001 0.10550      0.65500E-001

 NODE       723  KCS=      0  X,Y,Z= 0.45500E-001 0.12550      0.65500E-001

 NODE       724  KCS=      0  X,Y,Z= 0.45500E-001 0.14550      0.65500E-001

 NODE       725  KCS=      0  X,Y,Z= 0.45500E-001 0.16550      0.65500E-001

 NODE       726  KCS=      0  X,Y,Z= 0.45500E-001 0.18550      0.65500E-001

 NODE       727  KCS=      0  X,Y,Z= 0.45500E-001 0.20550      0.65500E-001

 NODE       728  KCS=      0  X,Y,Z= 0.45500E-001 0.22550      0.65500E-001

 NODE       729  KCS=      0  X,Y,Z= 0.65500E-001-0.14500E-001 0.65500E-001

 NODE       730  KCS=      0  X,Y,Z= 0.65500E-001 0.55000E-002 0.65500E-001

 NODE       731  KCS=      0  X,Y,Z= 0.65500E-001 0.25500E-001 0.65500E-001

 NODE       732  KCS=      0  X,Y,Z= 0.65500E-001 0.45500E-001 0.65500E-001

 NODE       733  KCS=      0  X,Y,Z= 0.65500E-001 0.65500E-001 0.65500E-001

 NODE       734  KCS=      0  X,Y,Z= 0.65500E-001 0.85500E-001 0.65500E-001

 NODE       735  KCS=      0  X,Y,Z= 0.65500E-001 0.10550      0.65500E-001

 NODE       736  KCS=      0  X,Y,Z= 0.65500E-001 0.12550      0.65500E-001

 NODE       737  KCS=      0  X,Y,Z= 0.65500E-001 0.14550      0.65500E-001

 NODE       738  KCS=      0  X,Y,Z= 0.65500E-001 0.16550      0.65500E-001

 NODE       739  KCS=      0  X,Y,Z= 0.65500E-001 0.18550      0.65500E-001

 NODE       740  KCS=      0  X,Y,Z= 0.65500E-001 0.20550      0.65500E-001

 NODE       741  KCS=      0  X,Y,Z= 0.65500E-001 0.22550      0.65500E-001

 NODE       742  KCS=      0  X,Y,Z= 0.85500E-001-0.14500E-001 0.65500E-001

 NODE       743  KCS=      0  X,Y,Z= 0.85500E-001 0.55000E-002 0.65500E-001

 NODE       744  KCS=      0  X,Y,Z= 0.85500E-001 0.25500E-001 0.65500E-001

 NODE       745  KCS=      0  X,Y,Z= 0.85500E-001 0.45500E-001 0.65500E-001

 NODE       746  KCS=      0  X,Y,Z= 0.85500E-001 0.65500E-001 0.65500E-001

 NODE       747  KCS=      0  X,Y,Z= 0.85500E-001 0.85500E-001 0.65500E-001

 NODE       748  KCS=      0  X,Y,Z= 0.85500E-001 0.10550      0.65500E-001

 NODE       749  KCS=      0  X,Y,Z= 0.85500E-001 0.12550      0.65500E-001

 NODE       750  KCS=      0  X,Y,Z= 0.85500E-001 0.14550      0.65500E-001

 NODE       751  KCS=      0  X,Y,Z= 0.85500E-001 0.16550      0.65500E-001

 NODE       752  KCS=      0  X,Y,Z= 0.85500E-001 0.18550      0.65500E-001

 NODE       753  KCS=      0  X,Y,Z= 0.85500E-001 0.20550      0.65500E-001

 NODE       754  KCS=      0  X,Y,Z= 0.85500E-001 0.22550      0.65500E-001

 NODE       755  KCS=      0  X,Y,Z= 0.10550     -0.14500E-001 0.65500E-001

 NODE       756  KCS=      0  X,Y,Z= 0.10550      0.55000E-002 0.65500E-001

 NODE       757  KCS=      0  X,Y,Z= 0.10550      0.25500E-001 0.65500E-001

 NODE       758  KCS=      0  X,Y,Z= 0.10550      0.45500E-001 0.65500E-001

 NODE       759  KCS=      0  X,Y,Z= 0.10550      0.65500E-001 0.65500E-001

 NODE       760  KCS=      0  X,Y,Z= 0.10550      0.85500E-001 0.65500E-001

 NODE       761  KCS=      0  X,Y,Z= 0.10550      0.10550      0.65500E-001

 NODE       762  KCS=      0  X,Y,Z= 0.10550      0.12550      0.65500E-001

 NODE       763  KCS=      0  X,Y,Z= 0.10550      0.14550      0.65500E-001

 NODE       764  KCS=      0  X,Y,Z= 0.10550      0.16550      0.65500E-001

 NODE       765  KCS=      0  X,Y,Z= 0.10550      0.18550      0.65500E-001

 NODE       766  KCS=      0  X,Y,Z= 0.10550      0.20550      0.65500E-001

 NODE       767  KCS=      0  X,Y,Z= 0.10550      0.22550      0.65500E-001

 NODE       768  KCS=      0  X,Y,Z= 0.12550     -0.14500E-001 0.65500E-001

 NODE       769  KCS=      0  X,Y,Z= 0.12550      0.55000E-002 0.65500E-001

 NODE       770  KCS=      0  X,Y,Z= 0.12550      0.25500E-001 0.65500E-001

 NODE       771  KCS=      0  X,Y,Z= 0.12550      0.45500E-001 0.65500E-001

 NODE       772  KCS=      0  X,Y,Z= 0.12550      0.65500E-001 0.65500E-001

 NODE       773  KCS=      0  X,Y,Z= 0.12550      0.85500E-001 0.65500E-001

 NODE       774  KCS=      0  X,Y,Z= 0.12550      0.10550      0.65500E-001

 NODE       775  KCS=      0  X,Y,Z= 0.12550      0.12550      0.65500E-001

 NODE       776  KCS=      0  X,Y,Z= 0.12550      0.14550      0.65500E-001

 NODE       777  KCS=      0  X,Y,Z= 0.12550      0.16550      0.65500E-001

 NODE       778  KCS=      0  X,Y,Z= 0.12550      0.18550      0.65500E-001

 NODE       779  KCS=      0  X,Y,Z= 0.12550      0.20550      0.65500E-001

 NODE       780  KCS=      0  X,Y,Z= 0.12550      0.22550      0.65500E-001

 NODE       781  KCS=      0  X,Y,Z= 0.14550     -0.14500E-001 0.65500E-001

 NODE       782  KCS=      0  X,Y,Z= 0.14550      0.55000E-002 0.65500E-001

 NODE       783  KCS=      0  X,Y,Z= 0.14550      0.25500E-001 0.65500E-001

 NODE       784  KCS=      0  X,Y,Z= 0.14550      0.45500E-001 0.65500E-001

 NODE       785  KCS=      0  X,Y,Z= 0.14550      0.65500E-001 0.65500E-001

 NODE       786  KCS=      0  X,Y,Z= 0.14550      0.85500E-001 0.65500E-001

 NODE       787  KCS=      0  X,Y,Z= 0.14550      0.10550      0.65500E-001

 NODE       788  KCS=      0  X,Y,Z= 0.14550      0.12550      0.65500E-001

 NODE       789  KCS=      0  X,Y,Z= 0.14550      0.14550      0.65500E-001

 NODE       790  KCS=      0  X,Y,Z= 0.14550      0.16550      0.65500E-001

 NODE       791  KCS=      0  X,Y,Z= 0.14550      0.18550      0.65500E-001

 NODE       792  KCS=      0  X,Y,Z= 0.14550      0.20550      0.65500E-001

 NODE       793  KCS=      0  X,Y,Z= 0.14550      0.22550      0.65500E-001

 NODE       794  KCS=      0  X,Y,Z= 0.16550     -0.14500E-001 0.65500E-001

 NODE       795  KCS=      0  X,Y,Z= 0.16550      0.55000E-002 0.65500E-001

 NODE       796  KCS=      0  X,Y,Z= 0.16550      0.25500E-001 0.65500E-001

 NODE       797  KCS=      0  X,Y,Z= 0.16550      0.45500E-001 0.65500E-001

 NODE       798  KCS=      0  X,Y,Z= 0.16550      0.65500E-001 0.65500E-001

 NODE       799  KCS=      0  X,Y,Z= 0.16550      0.85500E-001 0.65500E-001

 NODE       800  KCS=      0  X,Y,Z= 0.16550      0.10550      0.65500E-001

 NODE       801  KCS=      0  X,Y,Z= 0.16550      0.12550      0.65500E-001

 NODE       802  KCS=      0  X,Y,Z= 0.16550      0.14550      0.65500E-001

 NODE       803  KCS=      0  X,Y,Z= 0.16550      0.16550      0.65500E-001

 NODE       804  KCS=      0  X,Y,Z= 0.16550      0.18550      0.65500E-001

 NODE       805  KCS=      0  X,Y,Z= 0.16550      0.20550      0.65500E-001

 NODE       806  KCS=      0  X,Y,Z= 0.16550      0.22550      0.65500E-001

 NODE       807  KCS=      0  X,Y,Z= 0.18550     -0.14500E-001 0.65500E-001

 NODE       808  KCS=      0  X,Y,Z= 0.18550      0.55000E-002 0.65500E-001

 NODE       809  KCS=      0  X,Y,Z= 0.18550      0.25500E-001 0.65500E-001

 NODE       810  KCS=      0  X,Y,Z= 0.18550      0.45500E-001 0.65500E-001

 NODE       811  KCS=      0  X,Y,Z= 0.18550      0.65500E-001 0.65500E-001

 NODE       812  KCS=      0  X,Y,Z= 0.18550      0.85500E-001 0.65500E-001

 NODE       813  KCS=      0  X,Y,Z= 0.18550      0.10550      0.65500E-001

 NODE       814  KCS=      0  X,Y,Z= 0.18550      0.12550      0.65500E-001

 NODE       815  KCS=      0  X,Y,Z= 0.18550      0.14550      0.65500E-001

 NODE       816  KCS=      0  X,Y,Z= 0.18550      0.16550      0.65500E-001

 NODE       817  KCS=      0  X,Y,Z= 0.18550      0.18550      0.65500E-001

 NODE       818  KCS=      0  X,Y,Z= 0.18550      0.20550      0.65500E-001

 NODE       819  KCS=      0  X,Y,Z= 0.18550      0.22550      0.65500E-001

 NODE       820  KCS=      0  X,Y,Z= 0.20550     -0.14500E-001 0.65500E-001

 NODE       821  KCS=      0  X,Y,Z= 0.20550      0.55000E-002 0.65500E-001

 NODE       822  KCS=      0  X,Y,Z= 0.20550      0.25500E-001 0.65500E-001

 NODE       823  KCS=      0  X,Y,Z= 0.20550      0.45500E-001 0.65500E-001

 NODE       824  KCS=      0  X,Y,Z= 0.20550      0.65500E-001 0.65500E-001

 NODE       825  KCS=      0  X,Y,Z= 0.20550      0.85500E-001 0.65500E-001

 NODE       826  KCS=      0  X,Y,Z= 0.20550      0.10550      0.65500E-001

 NODE       827  KCS=      0  X,Y,Z= 0.20550      0.12550      0.65500E-001

 NODE       828  KCS=      0  X,Y,Z= 0.20550      0.14550      0.65500E-001

 NODE       829  KCS=      0  X,Y,Z= 0.20550      0.16550      0.65500E-001

 NODE       830  KCS=      0  X,Y,Z= 0.20550      0.18550      0.65500E-001

 NODE       831  KCS=      0  X,Y,Z= 0.20550      0.20550      0.65500E-001

 NODE       832  KCS=      0  X,Y,Z= 0.20550      0.22550      0.65500E-001

 NODE       833  KCS=      0  X,Y,Z= 0.22550     -0.14500E-001 0.65500E-001

 NODE       834  KCS=      0  X,Y,Z= 0.22550      0.55000E-002 0.65500E-001

 NODE       835  KCS=      0  X,Y,Z= 0.22550      0.25500E-001 0.65500E-001

 NODE       836  KCS=      0  X,Y,Z= 0.22550      0.45500E-001 0.65500E-001

 NODE       837  KCS=      0  X,Y,Z= 0.22550      0.65500E-001 0.65500E-001

 NODE       838  KCS=      0  X,Y,Z= 0.22550      0.85500E-001 0.65500E-001

 NODE       839  KCS=      0  X,Y,Z= 0.22550      0.10550      0.65500E-001

 NODE       840  KCS=      0  X,Y,Z= 0.22550      0.12550      0.65500E-001

 NODE       841  KCS=      0  X,Y,Z= 0.22550      0.14550      0.65500E-001

 NODE       842  KCS=      0  X,Y,Z= 0.22550      0.16550      0.65500E-001

 NODE       843  KCS=      0  X,Y,Z= 0.22550      0.18550      0.65500E-001

 NODE       844  KCS=      0  X,Y,Z= 0.22550      0.20550      0.65500E-001

 NODE       845  KCS=      0  X,Y,Z= 0.22550      0.22550      0.65500E-001

 NODE       846  KCS=      0  X,Y,Z=-0.14500E-001-0.14500E-001 0.85500E-001

 NODE       847  KCS=      0  X,Y,Z=-0.14500E-001 0.55000E-002 0.85500E-001

 NODE       848  KCS=      0  X,Y,Z=-0.14500E-001 0.25500E-001 0.85500E-001

 NODE       849  KCS=      0  X,Y,Z=-0.14500E-001 0.45500E-001 0.85500E-001

 NODE       850  KCS=      0  X,Y,Z=-0.14500E-001 0.65500E-001 0.85500E-001

 NODE       851  KCS=      0  X,Y,Z=-0.14500E-001 0.85500E-001 0.85500E-001

 NODE       852  KCS=      0  X,Y,Z=-0.14500E-001 0.10550      0.85500E-001

 NODE       853  KCS=      0  X,Y,Z=-0.14500E-001 0.12550      0.85500E-001

 NODE       854  KCS=      0  X,Y,Z=-0.14500E-001 0.14550      0.85500E-001

 NODE       855  KCS=      0  X,Y,Z=-0.14500E-001 0.16550      0.85500E-001

 NODE       856  KCS=      0  X,Y,Z=-0.14500E-001 0.18550      0.85500E-001

 NODE       857  KCS=      0  X,Y,Z=-0.14500E-001 0.20550      0.85500E-001

 NODE       858  KCS=      0  X,Y,Z=-0.14500E-001 0.22550      0.85500E-001

 NODE       859  KCS=      0  X,Y,Z= 0.55000E-002-0.14500E-001 0.85500E-001

 NODE       860  KCS=      0  X,Y,Z= 0.55000E-002 0.55000E-002 0.85500E-001

 NODE       861  KCS=      0  X,Y,Z= 0.55000E-002 0.25500E-001 0.85500E-001

 NODE       862  KCS=      0  X,Y,Z= 0.55000E-002 0.45500E-001 0.85500E-001

 NODE       863  KCS=      0  X,Y,Z= 0.55000E-002 0.65500E-001 0.85500E-001

 NODE       864  KCS=      0  X,Y,Z= 0.55000E-002 0.85500E-001 0.85500E-001

 NODE       865  KCS=      0  X,Y,Z= 0.55000E-002 0.10550      0.85500E-001

 NODE       866  KCS=      0  X,Y,Z= 0.55000E-002 0.12550      0.85500E-001

 NODE       867  KCS=      0  X,Y,Z= 0.55000E-002 0.14550      0.85500E-001

 NODE       868  KCS=      0  X,Y,Z= 0.55000E-002 0.16550      0.85500E-001

 NODE       869  KCS=      0  X,Y,Z= 0.55000E-002 0.18550      0.85500E-001

 NODE       870  KCS=      0  X,Y,Z= 0.55000E-002 0.20550      0.85500E-001

 NODE       871  KCS=      0  X,Y,Z= 0.55000E-002 0.22550      0.85500E-001

 NODE       872  KCS=      0  X,Y,Z= 0.25500E-001-0.14500E-001 0.85500E-001

 NODE       873  KCS=      0  X,Y,Z= 0.25500E-001 0.55000E-002 0.85500E-001

 NODE       874  KCS=      0  X,Y,Z= 0.25500E-001 0.25500E-001 0.85500E-001

 NODE       875  KCS=      0  X,Y,Z= 0.25500E-001 0.45500E-001 0.85500E-001

 NODE       876  KCS=      0  X,Y,Z= 0.25500E-001 0.65500E-001 0.85500E-001

 NODE       877  KCS=      0  X,Y,Z= 0.25500E-001 0.85500E-001 0.85500E-001

 NODE       878  KCS=      0  X,Y,Z= 0.25500E-001 0.10550      0.85500E-001

 NODE       879  KCS=      0  X,Y,Z= 0.25500E-001 0.12550      0.85500E-001

 NODE       880  KCS=      0  X,Y,Z= 0.25500E-001 0.14550      0.85500E-001

 NODE       881  KCS=      0  X,Y,Z= 0.25500E-001 0.16550      0.85500E-001

 NODE       882  KCS=      0  X,Y,Z= 0.25500E-001 0.18550      0.85500E-001

 NODE       883  KCS=      0  X,Y,Z= 0.25500E-001 0.20550      0.85500E-001

 NODE       884  KCS=      0  X,Y,Z= 0.25500E-001 0.22550      0.85500E-001

 NODE       885  KCS=      0  X,Y,Z= 0.45500E-001-0.14500E-001 0.85500E-001

 NODE       886  KCS=      0  X,Y,Z= 0.45500E-001 0.55000E-002 0.85500E-001

 NODE       887  KCS=      0  X,Y,Z= 0.45500E-001 0.25500E-001 0.85500E-001

 NODE       888  KCS=      0  X,Y,Z= 0.45500E-001 0.45500E-001 0.85500E-001

 NODE       889  KCS=      0  X,Y,Z= 0.45500E-001 0.65500E-001 0.85500E-001

 NODE       890  KCS=      0  X,Y,Z= 0.45500E-001 0.85500E-001 0.85500E-001

 NODE       891  KCS=      0  X,Y,Z= 0.45500E-001 0.10550      0.85500E-001

 NODE       892  KCS=      0  X,Y,Z= 0.45500E-001 0.12550      0.85500E-001

 NODE       893  KCS=      0  X,Y,Z= 0.45500E-001 0.14550      0.85500E-001

 NODE       894  KCS=      0  X,Y,Z= 0.45500E-001 0.16550      0.85500E-001

 NODE       895  KCS=      0  X,Y,Z= 0.45500E-001 0.18550      0.85500E-001

 NODE       896  KCS=      0  X,Y,Z= 0.45500E-001 0.20550      0.85500E-001

 NODE       897  KCS=      0  X,Y,Z= 0.45500E-001 0.22550      0.85500E-001

 NODE       898  KCS=      0  X,Y,Z= 0.65500E-001-0.14500E-001 0.85500E-001

 NODE       899  KCS=      0  X,Y,Z= 0.65500E-001 0.55000E-002 0.85500E-001

 NODE       900  KCS=      0  X,Y,Z= 0.65500E-001 0.25500E-001 0.85500E-001

 NODE       901  KCS=      0  X,Y,Z= 0.65500E-001 0.45500E-001 0.85500E-001

 NODE       902  KCS=      0  X,Y,Z= 0.65500E-001 0.65500E-001 0.85500E-001

 NODE       903  KCS=      0  X,Y,Z= 0.65500E-001 0.85500E-001 0.85500E-001

 NODE       904  KCS=      0  X,Y,Z= 0.65500E-001 0.10550      0.85500E-001

 NODE       905  KCS=      0  X,Y,Z= 0.65500E-001 0.12550      0.85500E-001

 NODE       906  KCS=      0  X,Y,Z= 0.65500E-001 0.14550      0.85500E-001

[...]
 REAL= 9.801745500E-05   IMAG=  0.00000000    

 SPECIFIED CONSTRAINT UX   FOR SELECTED NODES      2178 TO     2178 BY        1
 REAL=-1.221426810E-04   IMAG=  0.00000000    

 SPECIFIED CONSTRAINT UY   FOR SELECTED NODES      2178 TO     2178 BY        1
 REAL= 2.154360940E-04   IMAG=  0.00000000    

 SPECIFIED CONSTRAINT UZ   FOR SELECTED NODES      2178 TO     2178 BY        1
 REAL= 8.201582200E-05   IMAG=  0.00000000    

 SPECIFIED CONSTRAINT UX   FOR SELECTED NODES      2179 TO     2179 BY        1
 REAL=-1.175502490E-04   IMAG=  0.00000000    

 SPECIFIED CONSTRAINT UY   FOR SELECTED NODES      2179 TO     2179 BY        1
 REAL= 2.206966120E-04   IMAG=  0.00000000    

 SPECIFIED CONSTRAINT UZ   FOR SELECTED NODES      2179 TO     2179 BY        1
 REAL= 6.964759800E-05   IMAG=  0.00000000    

 SPECIFIED CONSTRAINT UX   FOR SELECTED NODES      2180 TO     2180 BY        1
 REAL=-9.996949100E-05   IMAG=  0.00000000    

 SPECIFIED CONSTRAINT UY   FOR SELECTED NODES      2180 TO     2180 BY        1
 REAL= 2.221088180E-04   IMAG=  0.00000000    

 SPECIFIED CONSTRAINT UZ   FOR SELECTED NODES      2180 TO     2180 BY        1
 REAL= 7.706709600E-05   IMAG=  0.00000000    

 SPECIFIED CONSTRAINT UX   FOR SELECTED NODES      2181 TO     2181 BY        1
 REAL=-9.851226500E-05   IMAG=  0.00000000    

 SPECIFIED CONSTRAINT UY   FOR SELECTED NODES      2181 TO     2181 BY        1
 REAL= 2.301252860E-04   IMAG=  0.00000000    

 SPECIFIED CONSTRAINT UZ   FOR SELECTED NODES      2181 TO     2181 BY        1
 REAL= 9.495027800E-05   IMAG=  0.00000000    

 SPECIFIED CONSTRAINT UX   FOR SELECTED NODES      2182 TO     2182 BY        1
 REAL=-8.987364200E-05   IMAG=  0.00000000    

 SPECIFIED CONSTRAINT UY   FOR SELECTED NODES      2182 TO     2182 BY        1
 REAL= 2.330321270E-04   IMAG=  0.00000000    

 SPECIFIED CONSTRAINT UZ   FOR SELECTED NODES      2182 TO     2182 BY        1
 REAL= 1.091708050E-04   IMAG=  0.00000000    

 SPECIFIED CONSTRAINT UX   FOR SELECTED NODES      2183 TO     2183 BY        1
 REAL=-9.971447200E-05   IMAG=  0.00000000    

 SPECIFIED CONSTRAINT UY   FOR SELECTED NODES      2183 TO     2183 BY        1
 REAL= 2.389417680E-04   IMAG=  0.00000000    

 SPECIFIED CONSTRAINT UZ   FOR SELECTED NODES      2183 TO     2183 BY        1
 REAL= 1.066273300E-04   IMAG=  0.00000000    

 SPECIFIED CONSTRAINT UX   FOR SELECTED NODES      2184 TO     2184 BY        1
 REAL=-1.020766740E-04   IMAG=  0.00000000    

 SPECIFIED CONSTRAINT UY   FOR SELECTED NODES      2184 TO     2184 BY        1
 REAL= 2.288725170E-04   IMAG=  0.00000000    

 SPECIFIED CONSTRAINT UZ   FOR SELECTED NODES      2184 TO     2184 BY        1
 REAL= 1.013803460E-04   IMAG=  0.00000000    

 SPECIFIED CONSTRAINT UX   FOR SELECTED NODES      2185 TO     2185 BY        1
 REAL=-9.101879100E-05   IMAG=  0.00000000    

 SPECIFIED CONSTRAINT UY   FOR SELECTED NODES      2185 TO     2185 BY        1
 REAL= 1.658376510E-04   IMAG=  0.00000000    

 SPECIFIED CONSTRAINT UZ   FOR SELECTED NODES      2185 TO     2185 BY        1
 REAL= 9.304861500E-05   IMAG=  0.00000000    

 SPECIFIED CONSTRAINT UX   FOR SELECTED NODES      2186 TO     2186 BY        1
 REAL=-8.792609400E-05   IMAG=  0.00000000    

 SPECIFIED CONSTRAINT UY   FOR SELECTED NODES      2186 TO     2186 BY        1
 REAL= 1.704789740E-04   IMAG=  0.00000000    

 SPECIFIED CONSTRAINT UZ   FOR SELECTED NODES      2186 TO     2186 BY        1
 REAL= 8.884232800E-05   IMAG=  0.00000000    

 SPECIFIED CONSTRAINT UX   FOR SELECTED NODES      2187 TO     2187 BY        1
 REAL=-7.955440900E-05   IMAG=  0.00000000    

 SPECIFIED CONSTRAINT UY   FOR SELECTED NODES      2187 TO     2187 BY        1
 REAL= 1.792138560E-04   IMAG=  0.00000000    

 SPECIFIED CONSTRAINT UZ   FOR SELECTED NODES      2187 TO     2187 BY        1
 REAL= 9.285165100E-05   IMAG=  0.00000000    

 SPECIFIED CONSTRAINT UX   FOR SELECTED NODES      2188 TO     2188 BY        1
 REAL=-8.441728600E-05   IMAG=  0.00000000    

 SPECIFIED CONSTRAINT UY   FOR SELECTED NODES      2188 TO     2188 BY        1
 REAL= 1.966848200E-04   IMAG=  0.00000000    

 SPECIFIED CONSTRAINT UZ   FOR SELECTED NODES      2188 TO     2188 BY        1
 REAL= 9.123808000E-05   IMAG=  0.00000000    

 SPECIFIED CONSTRAINT UX   FOR SELECTED NODES      2189 TO     2189 BY        1
 REAL=-1.308303480E-04   IMAG=  0.00000000    

 SPECIFIED CONSTRAINT UY   FOR SELECTED NODES      2189 TO     2189 BY        1
 REAL= 2.249732190E-04   IMAG=  0.00000000    

 SPECIFIED CONSTRAINT UZ   FOR SELECTED NODES      2189 TO     2189 BY        1
 REAL= 1.070127750E-04   IMAG=  0.00000000    

 SPECIFIED CONSTRAINT UX   FOR SELECTED NODES      2190 TO     2190 BY        1
 REAL=-1.413639050E-04   IMAG=  0.00000000    

 SPECIFIED CONSTRAINT UY   FOR SELECTED NODES      2190 TO     2190 BY        1
 REAL= 2.243470280E-04   IMAG=  0.00000000    

 SPECIFIED CONSTRAINT UZ   FOR SELECTED NODES      2190 TO     2190 BY        1
 REAL= 1.028372300E-04   IMAG=  0.00000000    

 SPECIFIED CONSTRAINT UX   FOR SELECTED NODES      2191 TO     2191 BY        1
 REAL=-1.330750640E-04   IMAG=  0.00000000    

 SPECIFIED CONSTRAINT UY   FOR SELECTED NODES      2191 TO     2191 BY        1
 REAL= 2.156628740E-04   IMAG=  0.00000000    

 SPECIFIED CONSTRAINT UZ   FOR SELECTED NODES      2191 TO     2191 BY        1
 REAL= 7.480397800E-05   IMAG=  0.00000000    

 SPECIFIED CONSTRAINT UX   FOR SELECTED NODES      2192 TO     2192 BY        1
 REAL=-1.162388380E-04   IMAG=  0.00000000    

 SPECIFIED CONSTRAINT UY   FOR SELECTED NODES      2192 TO     2192 BY        1
 REAL= 2.098266090E-04   IMAG=  0.00000000    

 SPECIFIED CONSTRAINT UZ   FOR SELECTED NODES      2192 TO     2192 BY        1
 REAL= 6.199526300E-05   IMAG=  0.00000000    

 SPECIFIED CONSTRAINT UX   FOR SELECTED NODES      2193 TO     2193 BY        1
 REAL=-1.087444760E-04   IMAG=  0.00000000    

 SPECIFIED CONSTRAINT UY   FOR SELECTED NODES      2193 TO     2193 BY        1
 REAL= 2.270887800E-04   IMAG=  0.00000000    

 SPECIFIED CONSTRAINT UZ   FOR SELECTED NODES      2193 TO     2193 BY        1
 REAL= 7.591051300E-05   IMAG=  0.00000000    

 SPECIFIED CONSTRAINT UX   FOR SELECTED NODES      2194 TO     2194 BY        1
 REAL=-9.197784000E-05   IMAG=  0.00000000    

 SPECIFIED CONSTRAINT UY   FOR SELECTED NODES      2194 TO     2194 BY        1
 REAL= 2.328253540E-04   IMAG=  0.00000000    

 SPECIFIED CONSTRAINT UZ   FOR SELECTED NODES      2194 TO     2194 BY        1
 REAL= 9.802964700E-05   IMAG=  0.00000000    

 SPECIFIED CONSTRAINT UX   FOR SELECTED NODES      2195 TO     2195 BY        1
 REAL=-9.790256200E-05   IMAG=  0.00000000    

 SPECIFIED CONSTRAINT UY   FOR SELECTED NODES      2195 TO     2195 BY        1
 REAL= 2.315042870E-04   IMAG=  0.00000000    

 SPECIFIED CONSTRAINT UZ   FOR SELECTED NODES      2195 TO     2195 BY        1
 REAL= 1.083932120E-04   IMAG=  0.00000000    

 SPECIFIED CONSTRAINT UX   FOR SELECTED NODES      2196 TO     2196 BY        1
 REAL=-1.122723240E-04   IMAG=  0.00000000    

 SPECIFIED CONSTRAINT UY   FOR SELECTED NODES      2196 TO     2196 BY        1
 REAL= 2.254280040E-04   IMAG=  0.00000000    

 SPECIFIED CONSTRAINT UZ   FOR SELECTED NODES      2196 TO     2196 BY        1
 REAL= 1.038574990E-04   IMAG=  0.00000000    

 SPECIFIED CONSTRAINT UX   FOR SELECTED NODES      2197 TO     2197 BY        1
 REAL=-1.205467180E-04   IMAG=  0.00000000    

 SPECIFIED CONSTRAINT UY   FOR SELECTED NODES      2197 TO     2197 BY        1
 REAL= 2.316297050E-04   IMAG=  0.00000000    

 SPECIFIED CONSTRAINT UZ   FOR SELECTED NODES      2197 TO     2197 BY        1
 REAL= 9.600605600E-05   IMAG=  0.00000000    

 SELECT ALL ENTITIES OF TYPE= ALL  AND BELOW

 USE PRECONDITIONED CONJUGATE GRADIENT SOLVER
  CONVERGENCE TOLERANCE = 1.00000E-08
  MAXIMUM ITERATION     = NumNode*DofPerNode*  1.0000    

 *****  ANSYS SOLVE    COMMAND  *****

 *** NOTE ***                            CP =       0.635   TIME= 19:04:01
 There is no title defined for this analysis.                            

 *** SELECTION OF ELEMENT TECHNOLOGIES FOR APPLICABLE ELEMENTS ***
                ---GIVE SUGGESTIONS ONLY---

 ELEMENT TYPE    1 IS SOLID185. IT IS ASSOCIATED WITH LINEAR MATERIALS ONLY
 AND POISSON'S RATIO IS NOT GREATER THAN 0.49. KEYOPT(2)=3 IS SUGGESTED.



 *** ANSYS - ENGINEERING ANALYSIS SYSTEM  RELEASE Release 17.2     17.2     ***
 ANSYS Academic Research                           
 00210476  VERSION=LINUX x64     19:04:01  APR 14, 2019 CP=      0.641

                                                                               



                       S O L U T I O N   O P T I O N S

   PROBLEM DIMENSIONALITY. . . . . . . . . . . . .3-D                  
   DEGREES OF FREEDOM. . . . . . UX   UY   UZ  
   ANALYSIS TYPE . . . . . . . . . . . . . . . . .STATIC (STEADY-STATE)
   EQUATION SOLVER OPTION. . . . . . . . . . . . .PCG                
      TOLERANCE. . . . . . . . . . . . . . . . . . 1.00000E-08
   GLOBALLY ASSEMBLED MATRIX . . . . . . . . . . .SYMMETRIC  

 *** NOTE ***                            CP =       0.643   TIME= 19:04:01
 Present time 0 is less than or equal to the previous time.  Time will   
 default to 1.                                                           

 *** NOTE ***                            CP =       0.644   TIME= 19:04:01
 The conditions for direct assembly have been met.  No .emat or .erot    
 files will be produced.                                                 

                      L O A D   S T E P   O P T I O N S

   LOAD STEP NUMBER. . . . . . . . . . . . . . . .     1
   TIME AT END OF THE LOAD STEP. . . . . . . . . .  1.0000    
   NUMBER OF SUBSTEPS. . . . . . . . . . . . . . .     1
   STEP CHANGE BOUNDARY CONDITIONS . . . . . . . .    NO
   PRINT OUTPUT CONTROLS . . . . . . . . . . . . .NO PRINTOUT
   DATABASE OUTPUT CONTROLS. . . . . . . . . . . .ALL DATA WRITTEN
                                                  FOR THE LAST SUBSTEP


 SOLUTION MONITORING INFO IS WRITTEN TO FILE= input.mntr                                                                                                                                                                                                                                                          


 *** NOTE ***                            CP =       0.670   TIME= 19:04:01
 The PCG solver has automatically set the level of difficulty for this   
 model to 1.                                                             

 Range of element maximum matrix coefficients in global coordinates
 Maximum = 66.1413818 at element 1280.                                   
 Minimum = 66.1413818 at element 393.                                    

   *** ELEMENT MATRIX FORMULATION TIMES
  TYPE    NUMBER   ENAME      TOTAL CP  AVE CP

     1      1728  SOLID185      0.196   0.000114
 Time at end of element matrix formulation CP = 0.884012938.             

 PRECONDITIONED SOLVER CP TIME      =     0.010
 PRECONDITIONED SOLVER ELAPSED TIME =     0.040

   *** ELEMENT RESULT CALCULATION TIMES
  TYPE    NUMBER   ENAME      TOTAL CP  AVE CP

     1      1728  SOLID185      0.166   0.000096

   *** NODAL LOAD CALCULATION TIMES
  TYPE    NUMBER   ENAME      TOTAL CP  AVE CP

     1      1728  SOLID185      0.010   0.000006
 *** LOAD STEP     1   SUBSTEP     1  COMPLETED.    CUM ITER =      1
 *** TIME =   1.00000         TIME INC =   1.00000      NEW TRIANG MATRIX


 *** ANSYS BINARY FILE STATISTICS
  BUFFER SIZE USED= 16384
        2.688 MB WRITTEN ON RESULTS FILE: input.rst

 FINISH SOLUTION PROCESSING


 ***** ROUTINE COMPLETED *****  CP =         1.111



 *** ANSYS - ENGINEERING ANALYSIS SYSTEM  RELEASE Release 17.2     17.2     ***
 ANSYS Academic Research                           
 00210476  VERSION=LINUX x64     19:04:02  APR 14, 2019 CP=      1.111

                                                                               



          ***** ANSYS ANALYSIS DEFINITION (PREP7) *****

 *** WARNING ***                         CP =       1.111   TIME= 19:04:02
 /SET is not a recognized PREP7 command, abbreviation, or macro.         
  This command will be ignored.                                          

 *** ANSYS GLOBAL STATUS *** 

 TITLE =                                                                       
 ANALYSIS TYPE =  STATIC (STEADY-STATE)
 NUMBER OF ELEMENT TYPES =      1
      1728 ELEMENTS CURRENTLY SELECTED.  MAX ELEMENT NUMBER =        1728
      2197 NODES CURRENTLY SELECTED.     MAX NODE NUMBER =           2197

 WRITE ANSYS DATABASE AS AN ANSYS INPUT FILE: input.CDB                                                                                                                                                                                                                                                           


 ***** ROUTINE COMPLETED *****  CP =         1.129



 *** ANSYS - ENGINEERING ANALYSIS SYSTEM  RELEASE Release 17.2     17.2     ***
 ANSYS Academic Research                           
 00210476  VERSION=LINUX x64     19:04:02  APR 14, 2019 CP=      1.139

                                                                               



          ***** ANSYS RESULTS INTERPRETATION (POST1) *****

 *** NOTE ***                            CP =       1.139   TIME= 19:04:02
 Reading results into the database (SET command) will update the current 
 displacement and force boundary conditions in the database with the     
 values from the results file for that load set.  Note that any          
 subsequent solutions will use these values unless action is taken to    
 either SAVE the current values or not overwrite them (/EXIT,NOSAVE).    

 /OUTPUT FILE= ANSYS_results.txt

 /OUTPUT FILE= ANSYS_results_xyz.txt

 STORE STRAINXX FROM ITEM=EPEL COMP=X     FOR ALL SELECTED ELEMENTS

 STORE STRAINYY FROM ITEM=EPEL COMP=Y     FOR ALL SELECTED ELEMENTS

 STORE STRAINZZ FROM ITEM=EPEL COMP=Z     FOR ALL SELECTED ELEMENTS

 STORE STRAINXY FROM ITEM=EPEL COMP=XY    FOR ALL SELECTED ELEMENTS

 STORE STRAINYZ FROM ITEM=EPEL COMP=YZ    FOR ALL SELECTED ELEMENTS

 STORE STRAINXZ FROM ITEM=EPEL COMP=XZ    FOR ALL SELECTED ELEMENTS

 STORE STRAIN1  FROM ITEM=EPEL COMP=1     FOR ALL SELECTED ELEMENTS

 STORE STRAIN2  FROM ITEM=EPEL COMP=2     FOR ALL SELECTED ELEMENTS

 STORE STRAIN3  FROM ITEM=EPEL COMP=3     FOR ALL SELECTED ELEMENTS

 *GET  NELEMENTS  FROM  ELEM  ITEM=COUN           VALUE=  1728.00000    

 PARAMETER STATUS- NELEMENTS  (      3 PARAMETERS DEFINED)
                  (INCLUDING        2 INTERNAL PARAMETERS)

 NAME                              VALUE                        TYPE  DIMENSIONS
 NELEMENTS                         1728.00000                  SCALAR

 SET PARAMETER DIMENSIONS ON  VDATA TYPE=ARRA  DIMENSIONS=  1728     7     1

 SET PARAMETER DIMENSIONS ON  VDATA2 TYPE=ARRA  DIMENSIONS=  1728     4     1

 PARAMETER N =     0.000000000    

 *DO LOOP ON PARAMETER= I FROM  1.0000     TO  1728.0     BY  1.0000    

 *GET  ELEMNUM   FROM  ELEM  ITEM=NXTH           VALUE=  1.00000000    

 PARAMETER VDATA(I,1) =     1.000000000    

 *GET  VDATA     FROM  ETAB  ITEM=ELEM ELEM  VALUE=-0.102478162E-03

 *GET  VDATA     FROM  ETAB  ITEM=ELEM ELEM  VALUE=-0.197106837E-03

 *GET  VDATA     FROM  ETAB  ITEM=ELEM ELEM  VALUE= 0.637955500E-04

 *GET  VDATA     FROM  ETAB  ITEM=ELEM ELEM  VALUE=-0.606505800E-03

 *GET  VDATA     FROM  ETAB  ITEM=ELEM ELEM  VALUE=-0.660358625E-04

 *GET  VDATA     FROM  ETAB  ITEM=ELEM ELEM  VALUE= 0.639673375E-04

 PARAMETER VDATA2(I,1) =     1.000000000    

 *GET  VDATA2    FROM  ETAB  ITEM=ELEM ELEM  VALUE= 0.175831636E-03

 *GET  VDATA2    FROM  ETAB  ITEM=ELEM ELEM  VALUE= 0.451286413E-04

 *GET  VDATA2    FROM  ETAB  ITEM=ELEM ELEM  VALUE=-0.456749727E-03

 PARAMETER N =     1.000000000    

 *ENDDO  INDEX= I                               

 OPENED FILE= ANSYS_results_elements_xyz.txt FOR COMMAND FILE DATA 


  COMMAND FILE CLOSED 


 OPENED FILE= ANSYS_results_elements.txt FOR COMMAND FILE DATA 


  COMMAND FILE CLOSED 


 EXIT THE ANSYS POST1 DATABASE PROCESSOR


 ***** ROUTINE COMPLETED *****  CP =         1.494



 ***** END OF INPUT ENCOUNTERED *****

 PURGE ALL SOLUTION AND POST DATA
 SAVE ALL MODEL DATA

 ALL CURRENT ANSYS DATA WRITTEN TO FILE NAME= input.db
  FOR POSSIBLE RESUME FROM THIS POINT


 NUMBER OF WARNING MESSAGES ENCOUNTERED=          1
 NUMBER OF ERROR   MESSAGES ENCOUNTERED=          0

+--------------------- A N S Y S   S T A T I S T I C S ------------------------+

Release: Release 17.2       Build: 17.2       Update: UP20160718   Platform: LINUX x64   
Date Run: 04/14/2019   Time: 19:04
Operating System: CentOS Linux release 7.6.1810 (Core)

Processor Model: Intel(R) Xeon(R) CPU E5-2630 v4 @ 2.20GHz

Compiler: Intel(R) FORTRAN Compiler Version 15.0.2  (Build: 20150121)
          Intel(R) C/C++ Compiler Version 15.0.2  (Build: 20150121)
          Intel(R) Math Kernel Library Version 11.2.3 Product Build 20150409

Number of machines requested            :    1
Total number of cores available         :   20
Number of physical cores available      :   20
Number of processes requested           :    1
Number of threads per process requested :    2
Total number of cores requested         :    2 (Shared Memory Parallel)                    

GPU Acceleration: Not Requested

Job Name: input
Input File: /shared/multisim2/DVC/ShIRTImagesResults/me1ibe/ET3/Results/Specimen1/VOI0/NodeSpacing20/input.txt
Working Directory: /tmp/usecase5614876923349383653dir

Total CPU time for main thread                    :        1.5 seconds
Total CPU time summed for all threads             :        1.5 seconds

Elapsed time spent pre-processing model (/PREP7)  :        0.2 seconds
Elapsed time spent solution - preprocessing       :        0.0 seconds
Elapsed time spent computing solution             :        0.8 seconds
Elapsed time spent solution - postprocessing      :        0.0 seconds
Elapsed time spent post-processing model (/POST1) :        0.6 seconds
 
Equation solver used                              :            PCG (symmetric)

Maximum total memory used                         :       23.0 MB
Maximum total memory allocated                    :     2112.0 MB
Maximum total memory available                    :        252 GB

+------------------ E N D   A N S Y S   S T A T I S T I C S -------------------+


 *---------------------------------------------------------------------------*
 |                                                                           |
 |                            ANSYS RUN COMPLETED                            |
 |                                                                           |
 |---------------------------------------------------------------------------|
 |                                                                           |
 | Ansys Release 17.2          Build 17.2         UP20160718     LINUX x64   |
 |                                                                           |
 |---------------------------------------------------------------------------|
 |                                                                           |
 | Database Requested(-db)  1024 MB    Scratch Memory Requested      1024 MB |
 | Maximum Database Used       9 MB    Maximum Scratch Memory Used     14 MB |
 |                                                                           |
 |---------------------------------------------------------------------------|
 |                                                                           |
 |        CP Time      (sec) =          1.510       Time  =  19:04:03        |
 |        Elapsed Time (sec) =          5.000       Date  =  04/14/2019      |
 |                                                                           |
 *---------------------------------------------------------------------------*
