
 ANSYS Academic Research                           


 *------------------------------------------------------------------*
 |                                                                  |
 |   W E L C O M E   T O   T H E   A N S Y S (R)  P R O G R A M     |
 |                                                                  |
 *------------------------------------------------------------------*




 ***************************************************************
 *            ANSYS Release 17.2     LEGAL NOTICES             *
 ***************************************************************
 *                                                             *
 * Copyright 2016 SAS IP, Inc.  All rights reserved.           *
 * Unauthorized use, distribution or duplication is            *
 * prohibited.                                                 *
 *                                                             *
 * Ansys is a registered trademark of ANSYS, Inc. or its       *
 * subsidiaries in the United States or other countries.       *
 * See the ANSYS, Inc. online documentation or the ANSYS, Inc. *
 * documentation CD or online help for the complete Legal      *
 * Notice.                                                     *
 *                                                             *
 ***************************************************************
 *                                                             *
 * THIS ANSYS SOFTWARE PRODUCT AND PROGRAM DOCUMENTATION       *
 * INCLUDE TRADE SECRETS AND CONFIDENTIAL AND PROPRIETARY      *
 * PRODUCTS OF ANSYS, INC., ITS SUBSIDIARIES, OR LICENSORS.    *
 * The software products and documentation are furnished by    *
 * ANSYS, Inc. or its subsidiaries under a software license    *
 * agreement that contains provisions concerning               *
 * non-disclosure, copying, length and nature of use,          *
 * compliance with exporting laws, warranties, disclaimers,    *
 * limitations of liability, and remedies, and other           *
 * provisions.  The software products and documentation may be *
 * used, disclosed, transferred, or copied only in accordance  *
 * with the terms and conditions of that software license      *
 * agreement.                                                  *
 *                                                             *
 * ANSYS, Inc. is a UL registered                              *
 * ISO 9001:2008 company.                                      *
 *                                                             *
 ***************************************************************
 *                                                             *
 * This product is subject to U.S. laws governing export and   *
 * re-export.                                                  *
 *                                                             *
 * For U.S. Government users, except as specifically granted   *
 * by the ANSYS, Inc. software license agreement, the use,     *
 * duplication, or disclosure by the United States Government  *
 * is subject to restrictions stated in the ANSYS, Inc.        *
 * software license agreement and FAR 12.212 (for non-DOD      *
 * licenses).                                                  *
 *                                                             *
 ***************************************************************


 AFTER YOU HAVE READ, UNDERSTOOD, AND AGREED TO THE PREVIOUS NOTICES,
 PRESS <CR> OR <ENTER> TO CONTINUE
 Release 17.2
     
 Point Releases and Patches installed:   
     
 ANSYS, Inc. Products Release 17.2   
 ANSYS Mechanical Products Release 17.2  
 ANSYS Customization Files for User Programmable Features Release 17.2   
 ANSYS Autodyn Release 17.2  
 ANSYS LS-DYNA Release 17.2  
 ANSYS CFX (includes ANSYS CFD-Post) Release 17.2
 ANSYS Fluent (includes ANSYS CFD-Post) Release 17.2 
 ANSYS TurboGrid Release 17.2
 ANSYS Polyflow (includes ANSYS CFD-Post) Release 17.2   
 ANSYS CFD-Post only Release 17.2
 ANSYS Forte Release 17.2
 ANSYS Chemkin Release 17.2  
 ANSYS ICEM CFD Release 17.2 
 ANSYS Composite PrepPost Release 17.2   
 ANSYS Icepak (includes ANSYS CFD-Post) Release 17.2 
 ANSYS Remote Solve Manager Standalone Services Release 17.2 
 ACIS Release 17.2   
 Catia, Version 5 Release 17.2   
 NX Release 17.2 
 Parasolid Release 17.2  
 ANSYS, Inc. License Manager Release 17.2


          *****  ANSYS COMMAND LINE ARGUMENTS  *****
  INITIAL JOBNAME              = input                                                                                                                                                                                                                                                   
  BATCH MODE REQUESTED (-b)    = LIST
  INPUT FILE COPY MODE (-c)    = COPY
  DESIGNXPLORER REQUESTED
  INPUT FILE NAME              = /shared/multisim2/DVC/ShIRTImagesResults/me1ibe/3DExpansion/Results/Specimen1/VOI0/NodeSpacing20/input.txt
  OUTPUT FILE NAME             = /shared/multisim2/DVC/ShIRTImagesResults/me1ibe/3DExpansion/Results/Specimen1/VOI0/NodeSpacing20/output.out
  START-UP FILE MODE           = READ  
  STOP FILE MODE               = READ  
  LANGUAGE                     = en-us               
  INITIAL DIRECTORY = /shared/multisim2/DVC/ShIRTImagesResults/me1ibe/3DExpansion/Results/Specimen1/VOI0/NodeSpacing20

 RELEASE= Release 17.2         BUILD= 17.2      UP20160718   VERSION=LINUX x64   
 CURRENT JOBNAME=input  17:59:09  JUL 26, 2019 CP=      0.199

     1  fini
     2  /cle
     3      
     4  /prep7  
     5      
     6  ET,1,SOLID185   
     7      
     8  /INPUT,'nodes','txt'
     9  /INPUT,'elements','txt' 
    10      
    11  MP,EX,1,17000   
    12  MP,PRXY,1,0.3   
    13      
    14      
    15  /FORMAT, , F15.10, 15, 10, 1000000000, ,
    16      
    17  /solu   
    18      
    19  /INPUT,'disp','txt' 
    20      
    21  allsel  
    22  eqslv,pcg   
    23  solve   
    24  FINISH  
    25      
    26      
    27  /prep7  
    28      
    29  /set, last  
    30  CDWRITE,DB,input,CDB
    31      
    32      
    33      
    34  /POST1  
    35      
    36  /OUTPUT,ANSYS_results,txt     ! redirect output to a file called "ANSYS_results.txt" with principal strains 
    37  PRNSOL, EPEL, PRIN  
    38  /out
    39      
    40  /OUTPUT,ANSYS_results_xyz,txt     ! redirect output to a file called "ANSYS_results_xyz.txt" with strain components 
    41  PRNSOL, EPEL, COMP  
    42  /out
    43      
    44      
    45  ! Create element table, column 1 to 6 is components, 7 to 9 are principal strain
    46  ETABLE,StrainXX,EPEL,X,avg  
    47  ETABLE,StrainYY,EPEL,Y,avg  
    48  ETABLE,StrainZZ,EPEL,Z,avg  
    49  ETABLE,StrainXY,EPEL,XY,avg 
    50  ETABLE,StrainYZ,EPEL,YZ,avg 
    51  ETABLE,StrainXZ,EPEL,XZ,avg 
    52      
    53  ETABLE,Strain1,EPEL,1,avg   
    54  ETABLE,Strain2,EPEL,2,avg   
    55  ETABLE,Strain3,EPEL,3,avg   
    56      
    57  !!!!!!!!!!!!!!!!!!!!!!!!!!!!!!!!!!!!!!!!!!!!!!!!!!!!!!!!!!  
    58      
    59      
    60  *get,nElements,ELEM,0,count 
    61  *status,nElements   
    62      
    63      
    64  !Create an array to store strain components 
    65  *DIM,vData,ARRAY,nElements,7
    66      
    67  !Create an array to store strain principal  
    68  *DIM,vData2,ARRAY,nElements,4   
    69      
    70  !!!!!!!!!!!!!!!!!!!!!!!!!!!!!!!!!!!!!!!!!!!!!!!!!!!!!!!!!!  
    71  ! Loop over each element
    72      
    73  N = 0   
    74      
    75  *do,i,1,nElements   
    76      
    77       *get,ElemNum,ELEM,N,NXTH   
    78        vData(i,1) = ElemNum  
    79       *get,vData(i,2),ETAB,1,ELEM,ElemNum
    80       *get,vData(i,3),ETAB,2,ELEM,ElemNum
    81       *get,vData(i,4),ETAB,3,ELEM,ElemNum
    82       *get,vData(i,5),ETAB,4,ELEM,ElemNum
    83       *get,vData(i,6),ETAB,5,ELEM,ElemNum
    84       *get,vData(i,7),ETAB,6,ELEM,ElemNum
    85      
    86      
    87       vData2(i,1) = ElemNum  
    88       *get,vData2(i,2),ETAB,7,ELEM,ElemNum   
    89       *get,vData2(i,3),ETAB,8,ELEM,ElemNum   
    90       *get,vData2(i,4),ETAB,9,ELEM,ElemNum   
    91      
    92       N = ElemNum
    93      
    94  *enddo  
    95      
    96      
    97  !!!!!!!!!!!!!!!!!!!!!!!!!!!!!!!!!!!!!!!!!!!!!!!!!!!!!!!!!!!!
    98      
    99  !output results into ASCII file StrainTensor.txt
   100  *cfopen,ANSYS_results_elements_xyz,txt  
   101  *vwrite,vData(1,1),vData(1,2),vData(1,3),vData(1,4),vData(1,5),vData(1,6),vData(1,7)
   102  (F10.0,TL1,' ','  'F15.10,'  ',F15.10,'  ',F15.10,'  ',F15.10,'  ',F15.10,'  ',F15.10)  
   103  *cfclos 
   104      
   105      
   106  !output results into ASCII file StrainPrincipal.txt 
   107  *cfopen,ANSYS_results_elements,txt  
   108  *vwrite,vData2(1,1),vData2(1,2),vData2(1,3),vData2(1,4) 
   109  (F10.0,TL1,' ','  'F15.10,'  ',F15.10,'  ',F15.10)  
   110  *cfclos 
   111      
   112      
   113      
   114      
   115      
   116      
   117      
   118      
   119  finish  

 RUN SETUP PROCEDURE FROM FILE= /usr/local/packages/apps/ansys/17.2/v172/ansys/apdl/start.ans

 *** NOTE ***                            CP =       0.200   TIME= 17:59:09
 *** IMPORTANT LICENSING MESSAGE ***                                     
                                                                         
 ANSYS LICENSE MANAGER MESSAGE                                           
 ansyslm.shef.ac.uk: Your ANSYS Technical Enhancements & Customer        
 Support (TECS) agreement will expire on 31-Jul-2019 for one             
 or more ANSYS products.                                                 
 Please contact your ANSYS Sales Representative                          
 or ANSYS, Inc.  To renew this agreement.                                

 /INPUT FILE= /usr/local/packages/apps/ansys/17.2/v172/ansys/apdl/start.ans  LINE=       0

 CLEAR DATABASE AND RERUN START.ANS

 RUN SETUP PROCEDURE FROM FILE= /usr/local/packages/apps/ansys/17.2/v172/ansys/apdl/start.ans

 ANSYS Academic Research                           

 /INPUT FILE= /usr/local/packages/apps/ansys/17.2/v172/ansys/apdl/start.ans  LINE=       0

 *** ANSYS - ENGINEERING ANALYSIS SYSTEM  RELEASE Release 17.2     17.2     ***
 ANSYS Academic Research                           
 00210476  VERSION=LINUX x64     17:59:09  JUL 26, 2019 CP=      0.340

                                                                               



          ***** ANSYS ANALYSIS DEFINITION (PREP7) *****

 ELEMENT TYPE       1 IS SOLID185     3-D 8-NODE STRUCTURAL SOLID 
  KEYOPT( 1- 6)=        0      0      0        0      0      0
  KEYOPT( 7-12)=        0      0      0        0      0      0
  KEYOPT(13-18)=        0      0      0        0      0      0

 CURRENT NODAL DOF SET IS  UX    UY    UZ  
  THREE-DIMENSIONAL MODEL

 /INPUT FILE= nodes.txt  LINE=       0

 NODE         1  KCS=      0  X,Y,Z= 0.50000E-003 0.50000E-003-0.95000E-002

 NODE         2  KCS=      0  X,Y,Z= 0.50000E-003 0.20500E-001-0.95000E-002

 NODE         3  KCS=      0  X,Y,Z= 0.50000E-003 0.40500E-001-0.95000E-002

 NODE         4  KCS=      0  X,Y,Z= 0.50000E-003 0.60500E-001-0.95000E-002

 NODE         5  KCS=      0  X,Y,Z= 0.50000E-003 0.80500E-001-0.95000E-002

 NODE         6  KCS=      0  X,Y,Z= 0.50000E-003 0.10050     -0.95000E-002

 NODE         7  KCS=      0  X,Y,Z= 0.50000E-003 0.12050     -0.95000E-002

 NODE         8  KCS=      0  X,Y,Z= 0.50000E-003 0.14050     -0.95000E-002

 NODE         9  KCS=      0  X,Y,Z= 0.50000E-003 0.16050     -0.95000E-002

 NODE        10  KCS=      0  X,Y,Z= 0.50000E-003 0.18050     -0.95000E-002

 NODE        11  KCS=      0  X,Y,Z= 0.50000E-003 0.20050     -0.95000E-002

 NODE        12  KCS=      0  X,Y,Z= 0.20500E-001 0.50000E-003-0.95000E-002

 NODE        13  KCS=      0  X,Y,Z= 0.20500E-001 0.20500E-001-0.95000E-002

 NODE        14  KCS=      0  X,Y,Z= 0.20500E-001 0.40500E-001-0.95000E-002

 NODE        15  KCS=      0  X,Y,Z= 0.20500E-001 0.60500E-001-0.95000E-002

 NODE        16  KCS=      0  X,Y,Z= 0.20500E-001 0.80500E-001-0.95000E-002

 NODE        17  KCS=      0  X,Y,Z= 0.20500E-001 0.10050     -0.95000E-002

 NODE        18  KCS=      0  X,Y,Z= 0.20500E-001 0.12050     -0.95000E-002

 NODE        19  KCS=      0  X,Y,Z= 0.20500E-001 0.14050     -0.95000E-002

 NODE        20  KCS=      0  X,Y,Z= 0.20500E-001 0.16050     -0.95000E-002

 NODE        21  KCS=      0  X,Y,Z= 0.20500E-001 0.18050     -0.95000E-002

 NODE        22  KCS=      0  X,Y,Z= 0.20500E-001 0.20050     -0.95000E-002

 NODE        23  KCS=      0  X,Y,Z= 0.40500E-001 0.50000E-003-0.95000E-002

 NODE        24  KCS=      0  X,Y,Z= 0.40500E-001 0.20500E-001-0.95000E-002

 NODE        25  KCS=      0  X,Y,Z= 0.40500E-001 0.40500E-001-0.95000E-002

 NODE        26  KCS=      0  X,Y,Z= 0.40500E-001 0.60500E-001-0.95000E-002

 NODE        27  KCS=      0  X,Y,Z= 0.40500E-001 0.80500E-001-0.95000E-002

 NODE        28  KCS=      0  X,Y,Z= 0.40500E-001 0.10050     -0.95000E-002

 NODE        29  KCS=      0  X,Y,Z= 0.40500E-001 0.12050     -0.95000E-002

 NODE        30  KCS=      0  X,Y,Z= 0.40500E-001 0.14050     -0.95000E-002

 NODE        31  KCS=      0  X,Y,Z= 0.40500E-001 0.16050     -0.95000E-002

 NODE        32  KCS=      0  X,Y,Z= 0.40500E-001 0.18050     -0.95000E-002

 NODE        33  KCS=      0  X,Y,Z= 0.40500E-001 0.20050     -0.95000E-002

 NODE        34  KCS=      0  X,Y,Z= 0.60500E-001 0.50000E-003-0.95000E-002

 NODE        35  KCS=      0  X,Y,Z= 0.60500E-001 0.20500E-001-0.95000E-002

 NODE        36  KCS=      0  X,Y,Z= 0.60500E-001 0.40500E-001-0.95000E-002

 NODE        37  KCS=      0  X,Y,Z= 0.60500E-001 0.60500E-001-0.95000E-002

 NODE        38  KCS=      0  X,Y,Z= 0.60500E-001 0.80500E-001-0.95000E-002

 NODE        39  KCS=      0  X,Y,Z= 0.60500E-001 0.10050     -0.95000E-002

 NODE        40  KCS=      0  X,Y,Z= 0.60500E-001 0.12050     -0.95000E-002

 NODE        41  KCS=      0  X,Y,Z= 0.60500E-001 0.14050     -0.95000E-002

 NODE        42  KCS=      0  X,Y,Z= 0.60500E-001 0.16050     -0.95000E-002

 NODE        43  KCS=      0  X,Y,Z= 0.60500E-001 0.18050     -0.95000E-002

 NODE        44  KCS=      0  X,Y,Z= 0.60500E-001 0.20050     -0.95000E-002

 NODE        45  KCS=      0  X,Y,Z= 0.80500E-001 0.50000E-003-0.95000E-002

 NODE        46  KCS=      0  X,Y,Z= 0.80500E-001 0.20500E-001-0.95000E-002

 NODE        47  KCS=      0  X,Y,Z= 0.80500E-001 0.40500E-001-0.95000E-002

 NODE        48  KCS=      0  X,Y,Z= 0.80500E-001 0.60500E-001-0.95000E-002

 NODE        49  KCS=      0  X,Y,Z= 0.80500E-001 0.80500E-001-0.95000E-002

 NODE        50  KCS=      0  X,Y,Z= 0.80500E-001 0.10050     -0.95000E-002

 NODE        51  KCS=      0  X,Y,Z= 0.80500E-001 0.12050     -0.95000E-002

 NODE        52  KCS=      0  X,Y,Z= 0.80500E-001 0.14050     -0.95000E-002

 NODE        53  KCS=      0  X,Y,Z= 0.80500E-001 0.16050     -0.95000E-002

 NODE        54  KCS=      0  X,Y,Z= 0.80500E-001 0.18050     -0.95000E-002

 NODE        55  KCS=      0  X,Y,Z= 0.80500E-001 0.20050     -0.95000E-002

 NODE        56  KCS=      0  X,Y,Z= 0.10050      0.50000E-003-0.95000E-002

 NODE        57  KCS=      0  X,Y,Z= 0.10050      0.20500E-001-0.95000E-002

 NODE        58  KCS=      0  X,Y,Z= 0.10050      0.40500E-001-0.95000E-002

 NODE        59  KCS=      0  X,Y,Z= 0.10050      0.60500E-001-0.95000E-002

 NODE        60  KCS=      0  X,Y,Z= 0.10050      0.80500E-001-0.95000E-002

 NODE        61  KCS=      0  X,Y,Z= 0.10050      0.10050     -0.95000E-002

 NODE        62  KCS=      0  X,Y,Z= 0.10050      0.12050     -0.95000E-002

 NODE        63  KCS=      0  X,Y,Z= 0.10050      0.14050     -0.95000E-002

 NODE        64  KCS=      0  X,Y,Z= 0.10050      0.16050     -0.95000E-002

 NODE        65  KCS=      0  X,Y,Z= 0.10050      0.18050     -0.95000E-002

 NODE        66  KCS=      0  X,Y,Z= 0.10050      0.20050     -0.95000E-002

 NODE        67  KCS=      0  X,Y,Z= 0.12050      0.50000E-003-0.95000E-002

 NODE        68  KCS=      0  X,Y,Z= 0.12050      0.20500E-001-0.95000E-002

 NODE        69  KCS=      0  X,Y,Z= 0.12050      0.40500E-001-0.95000E-002

 NODE        70  KCS=      0  X,Y,Z= 0.12050      0.60500E-001-0.95000E-002

 NODE        71  KCS=      0  X,Y,Z= 0.12050      0.80500E-001-0.95000E-002

 NODE        72  KCS=      0  X,Y,Z= 0.12050      0.10050     -0.95000E-002

 NODE        73  KCS=      0  X,Y,Z= 0.12050      0.12050     -0.95000E-002

 NODE        74  KCS=      0  X,Y,Z= 0.12050      0.14050     -0.95000E-002

 NODE        75  KCS=      0  X,Y,Z= 0.12050      0.16050     -0.95000E-002

 NODE        76  KCS=      0  X,Y,Z= 0.12050      0.18050     -0.95000E-002

 NODE        77  KCS=      0  X,Y,Z= 0.12050      0.20050     -0.95000E-002

 NODE        78  KCS=      0  X,Y,Z= 0.14050      0.50000E-003-0.95000E-002

 NODE        79  KCS=      0  X,Y,Z= 0.14050      0.20500E-001-0.95000E-002

 NODE        80  KCS=      0  X,Y,Z= 0.14050      0.40500E-001-0.95000E-002

 NODE        81  KCS=      0  X,Y,Z= 0.14050      0.60500E-001-0.95000E-002

 NODE        82  KCS=      0  X,Y,Z= 0.14050      0.80500E-001-0.95000E-002

 NODE        83  KCS=      0  X,Y,Z= 0.14050      0.10050     -0.95000E-002

 NODE        84  KCS=      0  X,Y,Z= 0.14050      0.12050     -0.95000E-002

 NODE        85  KCS=      0  X,Y,Z= 0.14050      0.14050     -0.95000E-002

 NODE        86  KCS=      0  X,Y,Z= 0.14050      0.16050     -0.95000E-002

 NODE        87  KCS=      0  X,Y,Z= 0.14050      0.18050     -0.95000E-002

 NODE        88  KCS=      0  X,Y,Z= 0.14050      0.20050     -0.95000E-002

 NODE        89  KCS=      0  X,Y,Z= 0.16050      0.50000E-003-0.95000E-002

 NODE        90  KCS=      0  X,Y,Z= 0.16050      0.20500E-001-0.95000E-002

 NODE        91  KCS=      0  X,Y,Z= 0.16050      0.40500E-001-0.95000E-002

 NODE        92  KCS=      0  X,Y,Z= 0.16050      0.60500E-001-0.95000E-002

 NODE        93  KCS=      0  X,Y,Z= 0.16050      0.80500E-001-0.95000E-002

 NODE        94  KCS=      0  X,Y,Z= 0.16050      0.10050     -0.95000E-002

 NODE        95  KCS=      0  X,Y,Z= 0.16050      0.12050     -0.95000E-002

 NODE        96  KCS=      0  X,Y,Z= 0.16050      0.14050     -0.95000E-002

 NODE        97  KCS=      0  X,Y,Z= 0.16050      0.16050     -0.95000E-002

 NODE        98  KCS=      0  X,Y,Z= 0.16050      0.18050     -0.95000E-002

 NODE        99  KCS=      0  X,Y,Z= 0.16050      0.20050     -0.95000E-002

 NODE       100  KCS=      0  X,Y,Z= 0.18050      0.50000E-003-0.95000E-002

 NODE       101  KCS=      0  X,Y,Z= 0.18050      0.20500E-001-0.95000E-002

 NODE       102  KCS=      0  X,Y,Z= 0.18050      0.40500E-001-0.95000E-002

 NODE       103  KCS=      0  X,Y,Z= 0.18050      0.60500E-001-0.95000E-002

 NODE       104  KCS=      0  X,Y,Z= 0.18050      0.80500E-001-0.95000E-002

 NODE       105  KCS=      0  X,Y,Z= 0.18050      0.10050     -0.95000E-002

 NODE       106  KCS=      0  X,Y,Z= 0.18050      0.12050     -0.95000E-002

 NODE       107  KCS=      0  X,Y,Z= 0.18050      0.14050     -0.95000E-002

 NODE       108  KCS=      0  X,Y,Z= 0.18050      0.16050     -0.95000E-002

 NODE       109  KCS=      0  X,Y,Z= 0.18050      0.18050     -0.95000E-002

 NODE       110  KCS=      0  X,Y,Z= 0.18050      0.20050     -0.95000E-002

 NODE       111  KCS=      0  X,Y,Z= 0.20050      0.50000E-003-0.95000E-002

 NODE       112  KCS=      0  X,Y,Z= 0.20050      0.20500E-001-0.95000E-002

 NODE       113  KCS=      0  X,Y,Z= 0.20050      0.40500E-001-0.95000E-002

 NODE       114  KCS=      0  X,Y,Z= 0.20050      0.60500E-001-0.95000E-002

 NODE       115  KCS=      0  X,Y,Z= 0.20050      0.80500E-001-0.95000E-002

 NODE       116  KCS=      0  X,Y,Z= 0.20050      0.10050     -0.95000E-002

 NODE       117  KCS=      0  X,Y,Z= 0.20050      0.12050     -0.95000E-002

 NODE       118  KCS=      0  X,Y,Z= 0.20050      0.14050     -0.95000E-002

 NODE       119  KCS=      0  X,Y,Z= 0.20050      0.16050     -0.95000E-002

 NODE       120  KCS=      0  X,Y,Z= 0.20050      0.18050     -0.95000E-002

 NODE       121  KCS=      0  X,Y,Z= 0.20050      0.20050     -0.95000E-002

 NODE       122  KCS=      0  X,Y,Z= 0.50000E-003 0.50000E-003 0.10500E-001

 NODE       123  KCS=      0  X,Y,Z= 0.50000E-003 0.20500E-001 0.10500E-001

 NODE       124  KCS=      0  X,Y,Z= 0.50000E-003 0.40500E-001 0.10500E-001

 NODE       125  KCS=      0  X,Y,Z= 0.50000E-003 0.60500E-001 0.10500E-001

 NODE       126  KCS=      0  X,Y,Z= 0.50000E-003 0.80500E-001 0.10500E-001

 NODE       127  KCS=      0  X,Y,Z= 0.50000E-003 0.10050      0.10500E-001

 NODE       128  KCS=      0  X,Y,Z= 0.50000E-003 0.12050      0.10500E-001

 NODE       129  KCS=      0  X,Y,Z= 0.50000E-003 0.14050      0.10500E-001

 NODE       130  KCS=      0  X,Y,Z= 0.50000E-003 0.16050      0.10500E-001

 NODE       131  KCS=      0  X,Y,Z= 0.50000E-003 0.18050      0.10500E-001

 NODE       132  KCS=      0  X,Y,Z= 0.50000E-003 0.20050      0.10500E-001

 NODE       133  KCS=      0  X,Y,Z= 0.20500E-001 0.50000E-003 0.10500E-001

 NODE       134  KCS=      0  X,Y,Z= 0.20500E-001 0.20500E-001 0.10500E-001

 NODE       135  KCS=      0  X,Y,Z= 0.20500E-001 0.40500E-001 0.10500E-001

 NODE       136  KCS=      0  X,Y,Z= 0.20500E-001 0.60500E-001 0.10500E-001

 NODE       137  KCS=      0  X,Y,Z= 0.20500E-001 0.80500E-001 0.10500E-001

 NODE       138  KCS=      0  X,Y,Z= 0.20500E-001 0.10050      0.10500E-001

 NODE       139  KCS=      0  X,Y,Z= 0.20500E-001 0.12050      0.10500E-001

 NODE       140  KCS=      0  X,Y,Z= 0.20500E-001 0.14050      0.10500E-001

 NODE       141  KCS=      0  X,Y,Z= 0.20500E-001 0.16050      0.10500E-001

 NODE       142  KCS=      0  X,Y,Z= 0.20500E-001 0.18050      0.10500E-001

 NODE       143  KCS=      0  X,Y,Z= 0.20500E-001 0.20050      0.10500E-001

 NODE       144  KCS=      0  X,Y,Z= 0.40500E-001 0.50000E-003 0.10500E-001

 NODE       145  KCS=      0  X,Y,Z= 0.40500E-001 0.20500E-001 0.10500E-001

 NODE       146  KCS=      0  X,Y,Z= 0.40500E-001 0.40500E-001 0.10500E-001

 NODE       147  KCS=      0  X,Y,Z= 0.40500E-001 0.60500E-001 0.10500E-001

 NODE       148  KCS=      0  X,Y,Z= 0.40500E-001 0.80500E-001 0.10500E-001

 NODE       149  KCS=      0  X,Y,Z= 0.40500E-001 0.10050      0.10500E-001

 NODE       150  KCS=      0  X,Y,Z= 0.40500E-001 0.12050      0.10500E-001

 NODE       151  KCS=      0  X,Y,Z= 0.40500E-001 0.14050      0.10500E-001

 NODE       152  KCS=      0  X,Y,Z= 0.40500E-001 0.16050      0.10500E-001

 NODE       153  KCS=      0  X,Y,Z= 0.40500E-001 0.18050      0.10500E-001

 NODE       154  KCS=      0  X,Y,Z= 0.40500E-001 0.20050      0.10500E-001

 NODE       155  KCS=      0  X,Y,Z= 0.60500E-001 0.50000E-003 0.10500E-001

 NODE       156  KCS=      0  X,Y,Z= 0.60500E-001 0.20500E-001 0.10500E-001

 NODE       157  KCS=      0  X,Y,Z= 0.60500E-001 0.40500E-001 0.10500E-001

 NODE       158  KCS=      0  X,Y,Z= 0.60500E-001 0.60500E-001 0.10500E-001

 NODE       159  KCS=      0  X,Y,Z= 0.60500E-001 0.80500E-001 0.10500E-001

 NODE       160  KCS=      0  X,Y,Z= 0.60500E-001 0.10050      0.10500E-001

 NODE       161  KCS=      0  X,Y,Z= 0.60500E-001 0.12050      0.10500E-001

 NODE       162  KCS=      0  X,Y,Z= 0.60500E-001 0.14050      0.10500E-001

 NODE       163  KCS=      0  X,Y,Z= 0.60500E-001 0.16050      0.10500E-001

 NODE       164  KCS=      0  X,Y,Z= 0.60500E-001 0.18050      0.10500E-001

 NODE       165  KCS=      0  X,Y,Z= 0.60500E-001 0.20050      0.10500E-001

 NODE       166  KCS=      0  X,Y,Z= 0.80500E-001 0.50000E-003 0.10500E-001

 NODE       167  KCS=      0  X,Y,Z= 0.80500E-001 0.20500E-001 0.10500E-001

 NODE       168  KCS=      0  X,Y,Z= 0.80500E-001 0.40500E-001 0.10500E-001

 NODE       169  KCS=      0  X,Y,Z= 0.80500E-001 0.60500E-001 0.10500E-001

 NODE       170  KCS=      0  X,Y,Z= 0.80500E-001 0.80500E-001 0.10500E-001

 NODE       171  KCS=      0  X,Y,Z= 0.80500E-001 0.10050      0.10500E-001

 NODE       172  KCS=      0  X,Y,Z= 0.80500E-001 0.12050      0.10500E-001

 NODE       173  KCS=      0  X,Y,Z= 0.80500E-001 0.14050      0.10500E-001

 NODE       174  KCS=      0  X,Y,Z= 0.80500E-001 0.16050      0.10500E-001

 NODE       175  KCS=      0  X,Y,Z= 0.80500E-001 0.18050      0.10500E-001

 NODE       176  KCS=      0  X,Y,Z= 0.80500E-001 0.20050      0.10500E-001

 NODE       177  KCS=      0  X,Y,Z= 0.10050      0.50000E-003 0.10500E-001

 NODE       178  KCS=      0  X,Y,Z= 0.10050      0.20500E-001 0.10500E-001

 NODE       179  KCS=      0  X,Y,Z= 0.10050      0.40500E-001 0.10500E-001

 NODE       180  KCS=      0  X,Y,Z= 0.10050      0.60500E-001 0.10500E-001

 NODE       181  KCS=      0  X,Y,Z= 0.10050      0.80500E-001 0.10500E-001

 NODE       182  KCS=      0  X,Y,Z= 0.10050      0.10050      0.10500E-001

 NODE       183  KCS=      0  X,Y,Z= 0.10050      0.12050      0.10500E-001

 NODE       184  KCS=      0  X,Y,Z= 0.10050      0.14050      0.10500E-001

 NODE       185  KCS=      0  X,Y,Z= 0.10050      0.16050      0.10500E-001

 NODE       186  KCS=      0  X,Y,Z= 0.10050      0.18050      0.10500E-001

 NODE       187  KCS=      0  X,Y,Z= 0.10050      0.20050      0.10500E-001

 NODE       188  KCS=      0  X,Y,Z= 0.12050      0.50000E-003 0.10500E-001

 NODE       189  KCS=      0  X,Y,Z= 0.12050      0.20500E-001 0.10500E-001

 NODE       190  KCS=      0  X,Y,Z= 0.12050      0.40500E-001 0.10500E-001

 NODE       191  KCS=      0  X,Y,Z= 0.12050      0.60500E-001 0.10500E-001

 NODE       192  KCS=      0  X,Y,Z= 0.12050      0.80500E-001 0.10500E-001

 NODE       193  KCS=      0  X,Y,Z= 0.12050      0.10050      0.10500E-001

 NODE       194  KCS=      0  X,Y,Z= 0.12050      0.12050      0.10500E-001

 NODE       195  KCS=      0  X,Y,Z= 0.12050      0.14050      0.10500E-001

 NODE       196  KCS=      0  X,Y,Z= 0.12050      0.16050      0.10500E-001

 NODE       197  KCS=      0  X,Y,Z= 0.12050      0.18050      0.10500E-001

 NODE       198  KCS=      0  X,Y,Z= 0.12050      0.20050      0.10500E-001

 NODE       199  KCS=      0  X,Y,Z= 0.14050      0.50000E-003 0.10500E-001

 NODE       200  KCS=      0  X,Y,Z= 0.14050      0.20500E-001 0.10500E-001

 NODE       201  KCS=      0  X,Y,Z= 0.14050      0.40500E-001 0.10500E-001

 NODE       202  KCS=      0  X,Y,Z= 0.14050      0.60500E-001 0.10500E-001

 NODE       203  KCS=      0  X,Y,Z= 0.14050      0.80500E-001 0.10500E-001

 NODE       204  KCS=      0  X,Y,Z= 0.14050      0.10050      0.10500E-001

 NODE       205  KCS=      0  X,Y,Z= 0.14050      0.12050      0.10500E-001

 NODE       206  KCS=      0  X,Y,Z= 0.14050      0.14050      0.10500E-001

 NODE       207  KCS=      0  X,Y,Z= 0.14050      0.16050      0.10500E-001

 NODE       208  KCS=      0  X,Y,Z= 0.14050      0.18050      0.10500E-001

 NODE       209  KCS=      0  X,Y,Z= 0.14050      0.20050      0.10500E-001

 NODE       210  KCS=      0  X,Y,Z= 0.16050      0.50000E-003 0.10500E-001

 NODE       211  KCS=      0  X,Y,Z= 0.16050      0.20500E-001 0.10500E-001

 NODE       212  KCS=      0  X,Y,Z= 0.16050      0.40500E-001 0.10500E-001

 NODE       213  KCS=      0  X,Y,Z= 0.16050      0.60500E-001 0.10500E-001

 NODE       214  KCS=      0  X,Y,Z= 0.16050      0.80500E-001 0.10500E-001

 NODE       215  KCS=      0  X,Y,Z= 0.16050      0.10050      0.10500E-001

 NODE       216  KCS=      0  X,Y,Z= 0.16050      0.12050      0.10500E-001

 NODE       217  KCS=      0  X,Y,Z= 0.16050      0.14050      0.10500E-001

 NODE       218  KCS=      0  X,Y,Z= 0.16050      0.16050      0.10500E-001

 NODE       219  KCS=      0  X,Y,Z= 0.16050      0.18050      0.10500E-001

 NODE       220  KCS=      0  X,Y,Z= 0.16050      0.20050      0.10500E-001

 NODE       221  KCS=      0  X,Y,Z= 0.18050      0.50000E-003 0.10500E-001

 NODE       222  KCS=      0  X,Y,Z= 0.18050      0.20500E-001 0.10500E-001

 NODE       223  KCS=      0  X,Y,Z= 0.18050      0.40500E-001 0.10500E-001

 NODE       224  KCS=      0  X,Y,Z= 0.18050      0.60500E-001 0.10500E-001

 NODE       225  KCS=      0  X,Y,Z= 0.18050      0.80500E-001 0.10500E-001

 NODE       226  KCS=      0  X,Y,Z= 0.18050      0.10050      0.10500E-001

 NODE       227  KCS=      0  X,Y,Z= 0.18050      0.12050      0.10500E-001

 NODE       228  KCS=      0  X,Y,Z= 0.18050      0.14050      0.10500E-001

 NODE       229  KCS=      0  X,Y,Z= 0.18050      0.16050      0.10500E-001

 NODE       230  KCS=      0  X,Y,Z= 0.18050      0.18050      0.10500E-001

 NODE       231  KCS=      0  X,Y,Z= 0.18050      0.20050      0.10500E-001

 NODE       232  KCS=      0  X,Y,Z= 0.20050      0.50000E-003 0.10500E-001

 NODE       233  KCS=      0  X,Y,Z= 0.20050      0.20500E-001 0.10500E-001

 NODE       234  KCS=      0  X,Y,Z= 0.20050      0.40500E-001 0.10500E-001

 NODE       235  KCS=      0  X,Y,Z= 0.20050      0.60500E-001 0.10500E-001

 NODE       236  KCS=      0  X,Y,Z= 0.20050      0.80500E-001 0.10500E-001

 NODE       237  KCS=      0  X,Y,Z= 0.20050      0.10050      0.10500E-001

 NODE       238  KCS=      0  X,Y,Z= 0.20050      0.12050      0.10500E-001

 NODE       239  KCS=      0  X,Y,Z= 0.20050      0.14050      0.10500E-001

 NODE       240  KCS=      0  X,Y,Z= 0.20050      0.16050      0.10500E-001

 NODE       241  KCS=      0  X,Y,Z= 0.20050      0.18050      0.10500E-001

 NODE       242  KCS=      0  X,Y,Z= 0.20050      0.20050      0.10500E-001

 NODE       243  KCS=      0  X,Y,Z= 0.50000E-003 0.50000E-003 0.30500E-001

 NODE       244  KCS=      0  X,Y,Z= 0.50000E-003 0.20500E-001 0.30500E-001

 NODE       245  KCS=      0  X,Y,Z= 0.50000E-003 0.40500E-001 0.30500E-001

 NODE       246  KCS=      0  X,Y,Z= 0.50000E-003 0.60500E-001 0.30500E-001

 NODE       247  KCS=      0  X,Y,Z= 0.50000E-003 0.80500E-001 0.30500E-001

 NODE       248  KCS=      0  X,Y,Z= 0.50000E-003 0.10050      0.30500E-001

 NODE       249  KCS=      0  X,Y,Z= 0.50000E-003 0.12050      0.30500E-001

 NODE       250  KCS=      0  X,Y,Z= 0.50000E-003 0.14050      0.30500E-001

 NODE       251  KCS=      0  X,Y,Z= 0.50000E-003 0.16050      0.30500E-001

 NODE       252  KCS=      0  X,Y,Z= 0.50000E-003 0.18050      0.30500E-001

 NODE       253  KCS=      0  X,Y,Z= 0.50000E-003 0.20050      0.30500E-001

 NODE       254  KCS=      0  X,Y,Z= 0.20500E-001 0.50000E-003 0.30500E-001

 NODE       255  KCS=      0  X,Y,Z= 0.20500E-001 0.20500E-001 0.30500E-001

 NODE       256  KCS=      0  X,Y,Z= 0.20500E-001 0.40500E-001 0.30500E-001

 NODE       257  KCS=      0  X,Y,Z= 0.20500E-001 0.60500E-001 0.30500E-001

 NODE       258  KCS=      0  X,Y,Z= 0.20500E-001 0.80500E-001 0.30500E-001

 NODE       259  KCS=      0  X,Y,Z= 0.20500E-001 0.10050      0.30500E-001

 NODE       260  KCS=      0  X,Y,Z= 0.20500E-001 0.12050      0.30500E-001

 NODE       261  KCS=      0  X,Y,Z= 0.20500E-001 0.14050      0.30500E-001

 NODE       262  KCS=      0  X,Y,Z= 0.20500E-001 0.16050      0.30500E-001

 NODE       263  KCS=      0  X,Y,Z= 0.20500E-001 0.18050      0.30500E-001

 NODE       264  KCS=      0  X,Y,Z= 0.20500E-001 0.20050      0.30500E-001

 NODE       265  KCS=      0  X,Y,Z= 0.40500E-001 0.50000E-003 0.30500E-001

 NODE       266  KCS=      0  X,Y,Z= 0.40500E-001 0.20500E-001 0.30500E-001

 NODE       267  KCS=      0  X,Y,Z= 0.40500E-001 0.40500E-001 0.30500E-001

 NODE       268  KCS=      0  X,Y,Z= 0.40500E-001 0.60500E-001 0.30500E-001

 NODE       269  KCS=      0  X,Y,Z= 0.40500E-001 0.80500E-001 0.30500E-001

 NODE       270  KCS=      0  X,Y,Z= 0.40500E-001 0.10050      0.30500E-001

 NODE       271  KCS=      0  X,Y,Z= 0.40500E-001 0.12050      0.30500E-001

 NODE       272  KCS=      0  X,Y,Z= 0.40500E-001 0.14050      0.30500E-001

 NODE       273  KCS=      0  X,Y,Z= 0.40500E-001 0.16050      0.30500E-001

 NODE       274  KCS=      0  X,Y,Z= 0.40500E-001 0.18050      0.30500E-001

 NODE       275  KCS=      0  X,Y,Z= 0.40500E-001 0.20050      0.30500E-001

 NODE       276  KCS=      0  X,Y,Z= 0.60500E-001 0.50000E-003 0.30500E-001

 NODE       277  KCS=      0  X,Y,Z= 0.60500E-001 0.20500E-001 0.30500E-001

 NODE       278  KCS=      0  X,Y,Z= 0.60500E-001 0.40500E-001 0.30500E-001

 NODE       279  KCS=      0  X,Y,Z= 0.60500E-001 0.60500E-001 0.30500E-001

 NODE       280  KCS=      0  X,Y,Z= 0.60500E-001 0.80500E-001 0.30500E-001

 NODE       281  KCS=      0  X,Y,Z= 0.60500E-001 0.10050      0.30500E-001

 NODE       282  KCS=      0  X,Y,Z= 0.60500E-001 0.12050      0.30500E-001

 NODE       283  KCS=      0  X,Y,Z= 0.60500E-001 0.14050      0.30500E-001

 NODE       284  KCS=      0  X,Y,Z= 0.60500E-001 0.16050      0.30500E-001

 NODE       285  KCS=      0  X,Y,Z= 0.60500E-001 0.18050      0.30500E-001

 NODE       286  KCS=      0  X,Y,Z= 0.60500E-001 0.20050      0.30500E-001

 NODE       287  KCS=      0  X,Y,Z= 0.80500E-001 0.50000E-003 0.30500E-001

 NODE       288  KCS=      0  X,Y,Z= 0.80500E-001 0.20500E-001 0.30500E-001

 NODE       289  KCS=      0  X,Y,Z= 0.80500E-001 0.40500E-001 0.30500E-001

 NODE       290  KCS=      0  X,Y,Z= 0.80500E-001 0.60500E-001 0.30500E-001

 NODE       291  KCS=      0  X,Y,Z= 0.80500E-001 0.80500E-001 0.30500E-001

 NODE       292  KCS=      0  X,Y,Z= 0.80500E-001 0.10050      0.30500E-001

 NODE       293  KCS=      0  X,Y,Z= 0.80500E-001 0.12050      0.30500E-001

 NODE       294  KCS=      0  X,Y,Z= 0.80500E-001 0.14050      0.30500E-001

 NODE       295  KCS=      0  X,Y,Z= 0.80500E-001 0.16050      0.30500E-001

 NODE       296  KCS=      0  X,Y,Z= 0.80500E-001 0.18050      0.30500E-001

 NODE       297  KCS=      0  X,Y,Z= 0.80500E-001 0.20050      0.30500E-001

 NODE       298  KCS=      0  X,Y,Z= 0.10050      0.50000E-003 0.30500E-001

 NODE       299  KCS=      0  X,Y,Z= 0.10050      0.20500E-001 0.30500E-001

 NODE       300  KCS=      0  X,Y,Z= 0.10050      0.40500E-001 0.30500E-001

 NODE       301  KCS=      0  X,Y,Z= 0.10050      0.60500E-001 0.30500E-001

 NODE       302  KCS=      0  X,Y,Z= 0.10050      0.80500E-001 0.30500E-001

 NODE       303  KCS=      0  X,Y,Z= 0.10050      0.10050      0.30500E-001

 NODE       304  KCS=      0  X,Y,Z= 0.10050      0.12050      0.30500E-001

 NODE       305  KCS=      0  X,Y,Z= 0.10050      0.14050      0.30500E-001

 NODE       306  KCS=      0  X,Y,Z= 0.10050      0.16050      0.30500E-001

 NODE       307  KCS=      0  X,Y,Z= 0.10050      0.18050      0.30500E-001

 NODE       308  KCS=      0  X,Y,Z= 0.10050      0.20050      0.30500E-001

 NODE       309  KCS=      0  X,Y,Z= 0.12050      0.50000E-003 0.30500E-001

 NODE       310  KCS=      0  X,Y,Z= 0.12050      0.20500E-001 0.30500E-001

 NODE       311  KCS=      0  X,Y,Z= 0.12050      0.40500E-001 0.30500E-001

 NODE       312  KCS=      0  X,Y,Z= 0.12050      0.60500E-001 0.30500E-001

 NODE       313  KCS=      0  X,Y,Z= 0.12050      0.80500E-001 0.30500E-001

 NODE       314  KCS=      0  X,Y,Z= 0.12050      0.10050      0.30500E-001

 NODE       315  KCS=      0  X,Y,Z= 0.12050      0.12050      0.30500E-001

 NODE       316  KCS=      0  X,Y,Z= 0.12050      0.14050      0.30500E-001

 NODE       317  KCS=      0  X,Y,Z= 0.12050      0.16050      0.30500E-001

 NODE       318  KCS=      0  X,Y,Z= 0.12050      0.18050      0.30500E-001

 NODE       319  KCS=      0  X,Y,Z= 0.12050      0.20050      0.30500E-001

 NODE       320  KCS=      0  X,Y,Z= 0.14050      0.50000E-003 0.30500E-001

 NODE       321  KCS=      0  X,Y,Z= 0.14050      0.20500E-001 0.30500E-001

 NODE       322  KCS=      0  X,Y,Z= 0.14050      0.40500E-001 0.30500E-001

 NODE       323  KCS=      0  X,Y,Z= 0.14050      0.60500E-001 0.30500E-001

 NODE       324  KCS=      0  X,Y,Z= 0.14050      0.80500E-001 0.30500E-001

 NODE       325  KCS=      0  X,Y,Z= 0.14050      0.10050      0.30500E-001

 NODE       326  KCS=      0  X,Y,Z= 0.14050      0.12050      0.30500E-001

 NODE       327  KCS=      0  X,Y,Z= 0.14050      0.14050      0.30500E-001

 NODE       328  KCS=      0  X,Y,Z= 0.14050      0.16050      0.30500E-001

 NODE       329  KCS=      0  X,Y,Z= 0.14050      0.18050      0.30500E-001

 NODE       330  KCS=      0  X,Y,Z= 0.14050      0.20050      0.30500E-001

 NODE       331  KCS=      0  X,Y,Z= 0.16050      0.50000E-003 0.30500E-001

 NODE       332  KCS=      0  X,Y,Z= 0.16050      0.20500E-001 0.30500E-001

 NODE       333  KCS=      0  X,Y,Z= 0.16050      0.40500E-001 0.30500E-001

 NODE       334  KCS=      0  X,Y,Z= 0.16050      0.60500E-001 0.30500E-001

 NODE       335  KCS=      0  X,Y,Z= 0.16050      0.80500E-001 0.30500E-001

 NODE       336  KCS=      0  X,Y,Z= 0.16050      0.10050      0.30500E-001

 NODE       337  KCS=      0  X,Y,Z= 0.16050      0.12050      0.30500E-001

 NODE       338  KCS=      0  X,Y,Z= 0.16050      0.14050      0.30500E-001

 NODE       339  KCS=      0  X,Y,Z= 0.16050      0.16050      0.30500E-001

 NODE       340  KCS=      0  X,Y,Z= 0.16050      0.18050      0.30500E-001

 NODE       341  KCS=      0  X,Y,Z= 0.16050      0.20050      0.30500E-001

 NODE       342  KCS=      0  X,Y,Z= 0.18050      0.50000E-003 0.30500E-001

 NODE       343  KCS=      0  X,Y,Z= 0.18050      0.20500E-001 0.30500E-001

 NODE       344  KCS=      0  X,Y,Z= 0.18050      0.40500E-001 0.30500E-001

 NODE       345  KCS=      0  X,Y,Z= 0.18050      0.60500E-001 0.30500E-001

 NODE       346  KCS=      0  X,Y,Z= 0.18050      0.80500E-001 0.30500E-001

 NODE       347  KCS=      0  X,Y,Z= 0.18050      0.10050      0.30500E-001

 NODE       348  KCS=      0  X,Y,Z= 0.18050      0.12050      0.30500E-001

 NODE       349  KCS=      0  X,Y,Z= 0.18050      0.14050      0.30500E-001

 NODE       350  KCS=      0  X,Y,Z= 0.18050      0.16050      0.30500E-001

 NODE       351  KCS=      0  X,Y,Z= 0.18050      0.18050      0.30500E-001

 NODE       352  KCS=      0  X,Y,Z= 0.18050      0.20050      0.30500E-001

 NODE       353  KCS=      0  X,Y,Z= 0.20050      0.50000E-003 0.30500E-001

 NODE       354  KCS=      0  X,Y,Z= 0.20050      0.20500E-001 0.30500E-001

 NODE       355  KCS=      0  X,Y,Z= 0.20050      0.40500E-001 0.30500E-001

 NODE       356  KCS=      0  X,Y,Z= 0.20050      0.60500E-001 0.30500E-001

 NODE       357  KCS=      0  X,Y,Z= 0.20050      0.80500E-001 0.30500E-001

 NODE       358  KCS=      0  X,Y,Z= 0.20050      0.10050      0.30500E-001

 NODE       359  KCS=      0  X,Y,Z= 0.20050      0.12050      0.30500E-001

 NODE       360  KCS=      0  X,Y,Z= 0.20050      0.14050      0.30500E-001

 NODE       361  KCS=      0  X,Y,Z= 0.20050      0.16050      0.30500E-001

 NODE       362  KCS=      0  X,Y,Z= 0.20050      0.18050      0.30500E-001

 NODE       363  KCS=      0  X,Y,Z= 0.20050      0.20050      0.30500E-001

 NODE       364  KCS=      0  X,Y,Z= 0.50000E-003 0.50000E-003 0.50500E-001

 NODE       365  KCS=      0  X,Y,Z= 0.50000E-003 0.20500E-001 0.50500E-001

 NODE       366  KCS=      0  X,Y,Z= 0.50000E-003 0.40500E-001 0.50500E-001

 NODE       367  KCS=      0  X,Y,Z= 0.50000E-003 0.60500E-001 0.50500E-001

 NODE       368  KCS=      0  X,Y,Z= 0.50000E-003 0.80500E-001 0.50500E-001

 NODE       369  KCS=      0  X,Y,Z= 0.50000E-003 0.10050      0.50500E-001

 NODE       370  KCS=      0  X,Y,Z= 0.50000E-003 0.12050      0.50500E-001

 NODE       371  KCS=      0  X,Y,Z= 0.50000E-003 0.14050      0.50500E-001

 NODE       372  KCS=      0  X,Y,Z= 0.50000E-003 0.16050      0.50500E-001

 NODE       373  KCS=      0  X,Y,Z= 0.50000E-003 0.18050      0.50500E-001

 NODE       374  KCS=      0  X,Y,Z= 0.50000E-003 0.20050      0.50500E-001

 NODE       375  KCS=      0  X,Y,Z= 0.20500E-001 0.50000E-003 0.50500E-001

 NODE       376  KCS=      0  X,Y,Z= 0.20500E-001 0.20500E-001 0.50500E-001

 NODE       377  KCS=      0  X,Y,Z= 0.20500E-001 0.40500E-001 0.50500E-001

 NODE       378  KCS=      0  X,Y,Z= 0.20500E-001 0.60500E-001 0.50500E-001

 NODE       379  KCS=      0  X,Y,Z= 0.20500E-001 0.80500E-001 0.50500E-001

 NODE       380  KCS=      0  X,Y,Z= 0.20500E-001 0.10050      0.50500E-001

 NODE       381  KCS=      0  X,Y,Z= 0.20500E-001 0.12050      0.50500E-001

 NODE       382  KCS=      0  X,Y,Z= 0.20500E-001 0.14050      0.50500E-001

 NODE       383  KCS=      0  X,Y,Z= 0.20500E-001 0.16050      0.50500E-001

 NODE       384  KCS=      0  X,Y,Z= 0.20500E-001 0.18050      0.50500E-001

 NODE       385  KCS=      0  X,Y,Z= 0.20500E-001 0.20050      0.50500E-001

 NODE       386  KCS=      0  X,Y,Z= 0.40500E-001 0.50000E-003 0.50500E-001

 NODE       387  KCS=      0  X,Y,Z= 0.40500E-001 0.20500E-001 0.50500E-001

 NODE       388  KCS=      0  X,Y,Z= 0.40500E-001 0.40500E-001 0.50500E-001

 NODE       389  KCS=      0  X,Y,Z= 0.40500E-001 0.60500E-001 0.50500E-001

 NODE       390  KCS=      0  X,Y,Z= 0.40500E-001 0.80500E-001 0.50500E-001

 NODE       391  KCS=      0  X,Y,Z= 0.40500E-001 0.10050      0.50500E-001

 NODE       392  KCS=      0  X,Y,Z= 0.40500E-001 0.12050      0.50500E-001

 NODE       393  KCS=      0  X,Y,Z= 0.40500E-001 0.14050      0.50500E-001

 NODE       394  KCS=      0  X,Y,Z= 0.40500E-001 0.16050      0.50500E-001

 NODE       395  KCS=      0  X,Y,Z= 0.40500E-001 0.18050      0.50500E-001

 NODE       396  KCS=      0  X,Y,Z= 0.40500E-001 0.20050      0.50500E-001

 NODE       397  KCS=      0  X,Y,Z= 0.60500E-001 0.50000E-003 0.50500E-001

 NODE       398  KCS=      0  X,Y,Z= 0.60500E-001 0.20500E-001 0.50500E-001

 NODE       399  KCS=      0  X,Y,Z= 0.60500E-001 0.40500E-001 0.50500E-001

 NODE       400  KCS=      0  X,Y,Z= 0.60500E-001 0.60500E-001 0.50500E-001

 NODE       401  KCS=      0  X,Y,Z= 0.60500E-001 0.80500E-001 0.50500E-001

 NODE       402  KCS=      0  X,Y,Z= 0.60500E-001 0.10050      0.50500E-001

 NODE       403  KCS=      0  X,Y,Z= 0.60500E-001 0.12050      0.50500E-001

 NODE       404  KCS=      0  X,Y,Z= 0.60500E-001 0.14050      0.50500E-001

 NODE       405  KCS=      0  X,Y,Z= 0.60500E-001 0.16050      0.50500E-001

 NODE       406  KCS=      0  X,Y,Z= 0.60500E-001 0.18050      0.50500E-001

 NODE       407  KCS=      0  X,Y,Z= 0.60500E-001 0.20050      0.50500E-001

 NODE       408  KCS=      0  X,Y,Z= 0.80500E-001 0.50000E-003 0.50500E-001

 NODE       409  KCS=      0  X,Y,Z= 0.80500E-001 0.20500E-001 0.50500E-001

 NODE       410  KCS=      0  X,Y,Z= 0.80500E-001 0.40500E-001 0.50500E-001

 NODE       411  KCS=      0  X,Y,Z= 0.80500E-001 0.60500E-001 0.50500E-001

 NODE       412  KCS=      0  X,Y,Z= 0.80500E-001 0.80500E-001 0.50500E-001

 NODE       413  KCS=      0  X,Y,Z= 0.80500E-001 0.10050      0.50500E-001

 NODE       414  KCS=      0  X,Y,Z= 0.80500E-001 0.12050      0.50500E-001

 NODE       415  KCS=      0  X,Y,Z= 0.80500E-001 0.14050      0.50500E-001

 NODE       416  KCS=      0  X,Y,Z= 0.80500E-001 0.16050      0.50500E-001

 NODE       417  KCS=      0  X,Y,Z= 0.80500E-001 0.18050      0.50500E-001

 NODE       418  KCS=      0  X,Y,Z= 0.80500E-001 0.20050      0.50500E-001

 NODE       419  KCS=      0  X,Y,Z= 0.10050      0.50000E-003 0.50500E-001

 NODE       420  KCS=      0  X,Y,Z= 0.10050      0.20500E-001 0.50500E-001

 NODE       421  KCS=      0  X,Y,Z= 0.10050      0.40500E-001 0.50500E-001

 NODE       422  KCS=      0  X,Y,Z= 0.10050      0.60500E-001 0.50500E-001

 NODE       423  KCS=      0  X,Y,Z= 0.10050      0.80500E-001 0.50500E-001

 NODE       424  KCS=      0  X,Y,Z= 0.10050      0.10050      0.50500E-001

 NODE       425  KCS=      0  X,Y,Z= 0.10050      0.12050      0.50500E-001

 NODE       426  KCS=      0  X,Y,Z= 0.10050      0.14050      0.50500E-001

 NODE       427  KCS=      0  X,Y,Z= 0.10050      0.16050      0.50500E-001

 NODE       428  KCS=      0  X,Y,Z= 0.10050      0.18050      0.50500E-001

 NODE       429  KCS=      0  X,Y,Z= 0.10050      0.20050      0.50500E-001

 NODE       430  KCS=      0  X,Y,Z= 0.12050      0.50000E-003 0.50500E-001

 NODE       431  KCS=      0  X,Y,Z= 0.12050      0.20500E-001 0.50500E-001

 NODE       432  KCS=      0  X,Y,Z= 0.12050      0.40500E-001 0.50500E-001

 NODE       433  KCS=      0  X,Y,Z= 0.12050      0.60500E-001 0.50500E-001

 NODE       434  KCS=      0  X,Y,Z= 0.12050      0.80500E-001 0.50500E-001

 NODE       435  KCS=      0  X,Y,Z= 0.12050      0.10050      0.50500E-001

 NODE       436  KCS=      0  X,Y,Z= 0.12050      0.12050      0.50500E-001

 NODE       437  KCS=      0  X,Y,Z= 0.12050      0.14050      0.50500E-001

 NODE       438  KCS=      0  X,Y,Z= 0.12050      0.16050      0.50500E-001

 NODE       439  KCS=      0  X,Y,Z= 0.12050      0.18050      0.50500E-001

 NODE       440  KCS=      0  X,Y,Z= 0.12050      0.20050      0.50500E-001

 NODE       441  KCS=      0  X,Y,Z= 0.14050      0.50000E-003 0.50500E-001

 NODE       442  KCS=      0  X,Y,Z= 0.14050      0.20500E-001 0.50500E-001

 NODE       443  KCS=      0  X,Y,Z= 0.14050      0.40500E-001 0.50500E-001

 NODE       444  KCS=      0  X,Y,Z= 0.14050      0.60500E-001 0.50500E-001

 NODE       445  KCS=      0  X,Y,Z= 0.14050      0.80500E-001 0.50500E-001

 NODE       446  KCS=      0  X,Y,Z= 0.14050      0.10050      0.50500E-001

 NODE       447  KCS=      0  X,Y,Z= 0.14050      0.12050      0.50500E-001

 NODE       448  KCS=      0  X,Y,Z= 0.14050      0.14050      0.50500E-001

 NODE       449  KCS=      0  X,Y,Z= 0.14050      0.16050      0.50500E-001

 NODE       450  KCS=      0  X,Y,Z= 0.14050      0.18050      0.50500E-001

 NODE       451  KCS=      0  X,Y,Z= 0.14050      0.20050      0.50500E-001

 NODE       452  KCS=      0  X,Y,Z= 0.16050      0.50000E-003 0.50500E-001

 NODE       453  KCS=      0  X,Y,Z= 0.16050      0.20500E-001 0.50500E-001

 NODE       454  KCS=      0  X,Y,Z= 0.16050      0.40500E-001 0.50500E-001

 NODE       455  KCS=      0  X,Y,Z= 0.16050      0.60500E-001 0.50500E-001

 NODE       456  KCS=      0  X,Y,Z= 0.16050      0.80500E-001 0.50500E-001

 NODE       457  KCS=      0  X,Y,Z= 0.16050      0.10050      0.50500E-001

 NODE       458  KCS=      0  X,Y,Z= 0.16050      0.12050      0.50500E-001

 NODE       459  KCS=      0  X,Y,Z= 0.16050      0.14050      0.50500E-001

 NODE       460  KCS=      0  X,Y,Z= 0.16050      0.16050      0.50500E-001

 NODE       461  KCS=      0  X,Y,Z= 0.16050      0.18050      0.50500E-001

 NODE       462  KCS=      0  X,Y,Z= 0.16050      0.20050      0.50500E-001

 NODE       463  KCS=      0  X,Y,Z= 0.18050      0.50000E-003 0.50500E-001

 NODE       464  KCS=      0  X,Y,Z= 0.18050      0.20500E-001 0.50500E-001

 NODE       465  KCS=      0  X,Y,Z= 0.18050      0.40500E-001 0.50500E-001

 NODE       466  KCS=      0  X,Y,Z= 0.18050      0.60500E-001 0.50500E-001

 NODE       467  KCS=      0  X,Y,Z= 0.18050      0.80500E-001 0.50500E-001

 NODE       468  KCS=      0  X,Y,Z= 0.18050      0.10050      0.50500E-001

 NODE       469  KCS=      0  X,Y,Z= 0.18050      0.12050      0.50500E-001

 NODE       470  KCS=      0  X,Y,Z= 0.18050      0.14050      0.50500E-001

 NODE       471  KCS=      0  X,Y,Z= 0.18050      0.16050      0.50500E-001

 NODE       472  KCS=      0  X,Y,Z= 0.18050      0.18050      0.50500E-001

 NODE       473  KCS=      0  X,Y,Z= 0.18050      0.20050      0.50500E-001

 NODE       474  KCS=      0  X,Y,Z= 0.20050      0.50000E-003 0.50500E-001

 NODE       475  KCS=      0  X,Y,Z= 0.20050      0.20500E-001 0.50500E-001

 NODE       476  KCS=      0  X,Y,Z= 0.20050      0.40500E-001 0.50500E-001

 NODE       477  KCS=      0  X,Y,Z= 0.20050      0.60500E-001 0.50500E-001

 NODE       478  KCS=      0  X,Y,Z= 0.20050      0.80500E-001 0.50500E-001

 NODE       479  KCS=      0  X,Y,Z= 0.20050      0.10050      0.50500E-001

 NODE       480  KCS=      0  X,Y,Z= 0.20050      0.12050      0.50500E-001

 NODE       481  KCS=      0  X,Y,Z= 0.20050      0.14050      0.50500E-001

 NODE       482  KCS=      0  X,Y,Z= 0.20050      0.16050      0.50500E-001

 NODE       483  KCS=      0  X,Y,Z= 0.20050      0.18050      0.50500E-001

 NODE       484  KCS=      0  X,Y,Z= 0.20050      0.20050      0.50500E-001

 NODE       485  KCS=      0  X,Y,Z= 0.50000E-003 0.50000E-003 0.70500E-001

 NODE       486  KCS=      0  X,Y,Z= 0.50000E-003 0.20500E-001 0.70500E-001

 NODE       487  KCS=      0  X,Y,Z= 0.50000E-003 0.40500E-001 0.70500E-001

 NODE       488  KCS=      0  X,Y,Z= 0.50000E-003 0.60500E-001 0.70500E-001

 NODE       489  KCS=      0  X,Y,Z= 0.50000E-003 0.80500E-001 0.70500E-001

 NODE       490  KCS=      0  X,Y,Z= 0.50000E-003 0.10050      0.70500E-001

 NODE       491  KCS=      0  X,Y,Z= 0.50000E-003 0.12050      0.70500E-001

 NODE       492  KCS=      0  X,Y,Z= 0.50000E-003 0.14050      0.70500E-001

 NODE       493  KCS=      0  X,Y,Z= 0.50000E-003 0.16050      0.70500E-001

 NODE       494  KCS=      0  X,Y,Z= 0.50000E-003 0.18050      0.70500E-001

 NODE       495  KCS=      0  X,Y,Z= 0.50000E-003 0.20050      0.70500E-001

 NODE       496  KCS=      0  X,Y,Z= 0.20500E-001 0.50000E-003 0.70500E-001

 NODE       497  KCS=      0  X,Y,Z= 0.20500E-001 0.20500E-001 0.70500E-001

 NODE       498  KCS=      0  X,Y,Z= 0.20500E-001 0.40500E-001 0.70500E-001

 NODE       499  KCS=      0  X,Y,Z= 0.20500E-001 0.60500E-001 0.70500E-001

 NODE       500  KCS=      0  X,Y,Z= 0.20500E-001 0.80500E-001 0.70500E-001

 NODE       501  KCS=      0  X,Y,Z= 0.20500E-001 0.10050      0.70500E-001

 NODE       502  KCS=      0  X,Y,Z= 0.20500E-001 0.12050      0.70500E-001

 NODE       503  KCS=      0  X,Y,Z= 0.20500E-001 0.14050      0.70500E-001

 NODE       504  KCS=      0  X,Y,Z= 0.20500E-001 0.16050      0.70500E-001

 NODE       505  KCS=      0  X,Y,Z= 0.20500E-001 0.18050      0.70500E-001

 NODE       506  KCS=      0  X,Y,Z= 0.20500E-001 0.20050      0.70500E-001

 NODE       507  KCS=      0  X,Y,Z= 0.40500E-001 0.50000E-003 0.70500E-001

 NODE       508  KCS=      0  X,Y,Z= 0.40500E-001 0.20500E-001 0.70500E-001

 NODE       509  KCS=      0  X,Y,Z= 0.40500E-001 0.40500E-001 0.70500E-001

 NODE       510  KCS=      0  X,Y,Z= 0.40500E-001 0.60500E-001 0.70500E-001

 NODE       511  KCS=      0  X,Y,Z= 0.40500E-001 0.80500E-001 0.70500E-001

 NODE       512  KCS=      0  X,Y,Z= 0.40500E-001 0.10050      0.70500E-001

 NODE       513  KCS=      0  X,Y,Z= 0.40500E-001 0.12050      0.70500E-001

 NODE       514  KCS=      0  X,Y,Z= 0.40500E-001 0.14050      0.70500E-001

 NODE       515  KCS=      0  X,Y,Z= 0.40500E-001 0.16050      0.70500E-001

 NODE       516  KCS=      0  X,Y,Z= 0.40500E-001 0.18050      0.70500E-001

 NODE       517  KCS=      0  X,Y,Z= 0.40500E-001 0.20050      0.70500E-001

 NODE       518  KCS=      0  X,Y,Z= 0.60500E-001 0.50000E-003 0.70500E-001

 NODE       519  KCS=      0  X,Y,Z= 0.60500E-001 0.20500E-001 0.70500E-001

 NODE       520  KCS=      0  X,Y,Z= 0.60500E-001 0.40500E-001 0.70500E-001

 NODE       521  KCS=      0  X,Y,Z= 0.60500E-001 0.60500E-001 0.70500E-001

 NODE       522  KCS=      0  X,Y,Z= 0.60500E-001 0.80500E-001 0.70500E-001

 NODE       523  KCS=      0  X,Y,Z= 0.60500E-001 0.10050      0.70500E-001

 NODE       524  KCS=      0  X,Y,Z= 0.60500E-001 0.12050      0.70500E-001

 NODE       525  KCS=      0  X,Y,Z= 0.60500E-001 0.14050      0.70500E-001

 NODE       526  KCS=      0  X,Y,Z= 0.60500E-001 0.16050      0.70500E-001

 NODE       527  KCS=      0  X,Y,Z= 0.60500E-001 0.18050      0.70500E-001

 NODE       528  KCS=      0  X,Y,Z= 0.60500E-001 0.20050      0.70500E-001

 NODE       529  KCS=      0  X,Y,Z= 0.80500E-001 0.50000E-003 0.70500E-001

 NODE       530  KCS=      0  X,Y,Z= 0.80500E-001 0.20500E-001 0.70500E-001

 NODE       531  KCS=      0  X,Y,Z= 0.80500E-001 0.40500E-001 0.70500E-001

 NODE       532  KCS=      0  X,Y,Z= 0.80500E-001 0.60500E-001 0.70500E-001

 NODE       533  KCS=      0  X,Y,Z= 0.80500E-001 0.80500E-001 0.70500E-001

 NODE       534  KCS=      0  X,Y,Z= 0.80500E-001 0.10050      0.70500E-001

 NODE       535  KCS=      0  X,Y,Z= 0.80500E-001 0.12050      0.70500E-001

 NODE       536  KCS=      0  X,Y,Z= 0.80500E-001 0.14050      0.70500E-001

 NODE       537  KCS=      0  X,Y,Z= 0.80500E-001 0.16050      0.70500E-001

 NODE       538  KCS=      0  X,Y,Z= 0.80500E-001 0.18050      0.70500E-001

 NODE       539  KCS=      0  X,Y,Z= 0.80500E-001 0.20050      0.70500E-001

 NODE       540  KCS=      0  X,Y,Z= 0.10050      0.50000E-003 0.70500E-001

 NODE       541  KCS=      0  X,Y,Z= 0.10050      0.20500E-001 0.70500E-001

 NODE       542  KCS=      0  X,Y,Z= 0.10050      0.40500E-001 0.70500E-001

 NODE       543  KCS=      0  X,Y,Z= 0.10050      0.60500E-001 0.70500E-001

 NODE       544  KCS=      0  X,Y,Z= 0.10050      0.80500E-001 0.70500E-001

 NODE       545  KCS=      0  X,Y,Z= 0.10050      0.10050      0.70500E-001

 NODE       546  KCS=      0  X,Y,Z= 0.10050      0.12050      0.70500E-001

 NODE       547  KCS=      0  X,Y,Z= 0.10050      0.14050      0.70500E-001

 NODE       548  KCS=      0  X,Y,Z= 0.10050      0.16050      0.70500E-001

 NODE       549  KCS=      0  X,Y,Z= 0.10050      0.18050      0.70500E-001

 NODE       550  KCS=      0  X,Y,Z= 0.10050      0.20050      0.70500E-001

 NODE       551  KCS=      0  X,Y,Z= 0.12050      0.50000E-003 0.70500E-001

 NODE       552  KCS=      0  X,Y,Z= 0.12050      0.20500E-001 0.70500E-001

 NODE       553  KCS=      0  X,Y,Z= 0.12050      0.40500E-001 0.70500E-001

 NODE       554  KCS=      0  X,Y,Z= 0.12050      0.60500E-001 0.70500E-001

 NODE       555  KCS=      0  X,Y,Z= 0.12050      0.80500E-001 0.70500E-001

 NODE       556  KCS=      0  X,Y,Z= 0.12050      0.10050      0.70500E-001

 NODE       557  KCS=      0  X,Y,Z= 0.12050      0.12050      0.70500E-001

 NODE       558  KCS=      0  X,Y,Z= 0.12050      0.14050      0.70500E-001

 NODE       559  KCS=      0  X,Y,Z= 0.12050      0.16050      0.70500E-001

 NODE       560  KCS=      0  X,Y,Z= 0.12050      0.18050      0.70500E-001

 NODE       561  KCS=      0  X,Y,Z= 0.12050      0.20050      0.70500E-001

 NODE       562  KCS=      0  X,Y,Z= 0.14050      0.50000E-003 0.70500E-001

 NODE       563  KCS=      0  X,Y,Z= 0.14050      0.20500E-001 0.70500E-001

 NODE       564  KCS=      0  X,Y,Z= 0.14050      0.40500E-001 0.70500E-001

 NODE       565  KCS=      0  X,Y,Z= 0.14050      0.60500E-001 0.70500E-001

 NODE       566  KCS=      0  X,Y,Z= 0.14050      0.80500E-001 0.70500E-001

 NODE       567  KCS=      0  X,Y,Z= 0.14050      0.10050      0.70500E-001

 NODE       568  KCS=      0  X,Y,Z= 0.14050      0.12050      0.70500E-001

 NODE       569  KCS=      0  X,Y,Z= 0.14050      0.14050      0.70500E-001

 NODE       570  KCS=      0  X,Y,Z= 0.14050      0.16050      0.70500E-001

 NODE       571  KCS=      0  X,Y,Z= 0.14050      0.18050      0.70500E-001

 NODE       572  KCS=      0  X,Y,Z= 0.14050      0.20050      0.70500E-001

 NODE       573  KCS=      0  X,Y,Z= 0.16050      0.50000E-003 0.70500E-001

 NODE       574  KCS=      0  X,Y,Z= 0.16050      0.20500E-001 0.70500E-001

 NODE       575  KCS=      0  X,Y,Z= 0.16050      0.40500E-001 0.70500E-001

 NODE       576  KCS=      0  X,Y,Z= 0.16050      0.60500E-001 0.70500E-001

 NODE       577  KCS=      0  X,Y,Z= 0.16050      0.80500E-001 0.70500E-001

 NODE       578  KCS=      0  X,Y,Z= 0.16050      0.10050      0.70500E-001

 NODE       579  KCS=      0  X,Y,Z= 0.16050      0.12050      0.70500E-001

 NODE       580  KCS=      0  X,Y,Z= 0.16050      0.14050      0.70500E-001

 NODE       581  KCS=      0  X,Y,Z= 0.16050      0.16050      0.70500E-001

 NODE       582  KCS=      0  X,Y,Z= 0.16050      0.18050      0.70500E-001

 NODE       583  KCS=      0  X,Y,Z= 0.16050      0.20050      0.70500E-001

 NODE       584  KCS=      0  X,Y,Z= 0.18050      0.50000E-003 0.70500E-001

 NODE       585  KCS=      0  X,Y,Z= 0.18050      0.20500E-001 0.70500E-001

 NODE       586  KCS=      0  X,Y,Z= 0.18050      0.40500E-001 0.70500E-001

 NODE       587  KCS=      0  X,Y,Z= 0.18050      0.60500E-001 0.70500E-001

 NODE       588  KCS=      0  X,Y,Z= 0.18050      0.80500E-001 0.70500E-001

 NODE       589  KCS=      0  X,Y,Z= 0.18050      0.10050      0.70500E-001

 NODE       590  KCS=      0  X,Y,Z= 0.18050      0.12050      0.70500E-001

 NODE       591  KCS=      0  X,Y,Z= 0.18050      0.14050      0.70500E-001

 NODE       592  KCS=      0  X,Y,Z= 0.18050      0.16050      0.70500E-001

 NODE       593  KCS=      0  X,Y,Z= 0.18050      0.18050      0.70500E-001

 NODE       594  KCS=      0  X,Y,Z= 0.18050      0.20050      0.70500E-001

 NODE       595  KCS=      0  X,Y,Z= 0.20050      0.50000E-003 0.70500E-001

 NODE       596  KCS=      0  X,Y,Z= 0.20050      0.20500E-001 0.70500E-001

 NODE       597  KCS=      0  X,Y,Z= 0.20050      0.40500E-001 0.70500E-001

 NODE       598  KCS=      0  X,Y,Z= 0.20050      0.60500E-001 0.70500E-001

 NODE       599  KCS=      0  X,Y,Z= 0.20050      0.80500E-001 0.70500E-001

 NODE       600  KCS=      0  X,Y,Z= 0.20050      0.10050      0.70500E-001

 NODE       601  KCS=      0  X,Y,Z= 0.20050      0.12050      0.70500E-001

 NODE       602  KCS=      0  X,Y,Z= 0.20050      0.14050      0.70500E-001

 NODE       603  KCS=      0  X,Y,Z= 0.20050      0.16050      0.70500E-001

 NODE       604  KCS=      0  X,Y,Z= 0.20050      0.18050      0.70500E-001

 NODE       605  KCS=      0  X,Y,Z= 0.20050      0.20050      0.70500E-001

 NODE       606  KCS=      0  X,Y,Z= 0.50000E-003 0.50000E-003 0.90500E-001

 NODE       607  KCS=      0  X,Y,Z= 0.50000E-003 0.20500E-001 0.90500E-001

 NODE       608  KCS=      0  X,Y,Z= 0.50000E-003 0.40500E-001 0.90500E-001

 NODE       609  KCS=      0  X,Y,Z= 0.50000E-003 0.60500E-001 0.90500E-001

 NODE       610  KCS=      0  X,Y,Z= 0.50000E-003 0.80500E-001 0.90500E-001

 NODE       611  KCS=      0  X,Y,Z= 0.50000E-003 0.10050      0.90500E-001

 NODE       612  KCS=      0  X,Y,Z= 0.50000E-003 0.12050      0.90500E-001

 NODE       613  KCS=      0  X,Y,Z= 0.50000E-003 0.14050      0.90500E-001

 NODE       614  KCS=      0  X,Y,Z= 0.50000E-003 0.16050      0.90500E-001

 NODE       615  KCS=      0  X,Y,Z= 0.50000E-003 0.18050      0.90500E-001

 NODE       616  KCS=      0  X,Y,Z= 0.50000E-003 0.20050      0.90500E-001

 NODE       617  KCS=      0  X,Y,Z= 0.20500E-001 0.50000E-003 0.90500E-001

 NODE       618  KCS=      0  X,Y,Z= 0.20500E-001 0.20500E-001 0.90500E-001

 NODE       619  KCS=      0  X,Y,Z= 0.20500E-001 0.40500E-001 0.90500E-001

 NODE       620  KCS=      0  X,Y,Z= 0.20500E-001 0.60500E-001 0.90500E-001

 NODE       621  KCS=      0  X,Y,Z= 0.20500E-001 0.80500E-001 0.90500E-001

 NODE       622  KCS=      0  X,Y,Z= 0.20500E-001 0.10050      0.90500E-001

 NODE       623  KCS=      0  X,Y,Z= 0.20500E-001 0.12050      0.90500E-001

 NODE       624  KCS=      0  X,Y,Z= 0.20500E-001 0.14050      0.90500E-001

 NODE       625  KCS=      0  X,Y,Z= 0.20500E-001 0.16050      0.90500E-001

 NODE       626  KCS=      0  X,Y,Z= 0.20500E-001 0.18050      0.90500E-001

 NODE       627  KCS=      0  X,Y,Z= 0.20500E-001 0.20050      0.90500E-001

 NODE       628  KCS=      0  X,Y,Z= 0.40500E-001 0.50000E-003 0.90500E-001

 NODE       629  KCS=      0  X,Y,Z= 0.40500E-001 0.20500E-001 0.90500E-001

 NODE       630  KCS=      0  X,Y,Z= 0.40500E-001 0.40500E-001 0.90500E-001

 NODE       631  KCS=      0  X,Y,Z= 0.40500E-001 0.60500E-001 0.90500E-001

 NODE       632  KCS=      0  X,Y,Z= 0.40500E-001 0.80500E-001 0.90500E-001

 NODE       633  KCS=      0  X,Y,Z= 0.40500E-001 0.10050      0.90500E-001

 NODE       634  KCS=      0  X,Y,Z= 0.40500E-001 0.12050      0.90500E-001

 NODE       635  KCS=      0  X,Y,Z= 0.40500E-001 0.14050      0.90500E-001

 NODE       636  KCS=      0  X,Y,Z= 0.40500E-001 0.16050      0.90500E-001

 NODE       637  KCS=      0  X,Y,Z= 0.40500E-001 0.18050      0.90500E-001

 NODE       638  KCS=      0  X,Y,Z= 0.40500E-001 0.20050      0.90500E-001

 NODE       639  KCS=      0  X,Y,Z= 0.60500E-001 0.50000E-003 0.90500E-001

 NODE       640  KCS=      0  X,Y,Z= 0.60500E-001 0.20500E-001 0.90500E-001

 NODE       641  KCS=      0  X,Y,Z= 0.60500E-001 0.40500E-001 0.90500E-001

 NODE       642  KCS=      0  X,Y,Z= 0.60500E-001 0.60500E-001 0.90500E-001

 NODE       643  KCS=      0  X,Y,Z= 0.60500E-001 0.80500E-001 0.90500E-001

 NODE       644  KCS=      0  X,Y,Z= 0.60500E-001 0.10050      0.90500E-001

 NODE       645  KCS=      0  X,Y,Z= 0.60500E-001 0.12050      0.90500E-001

 NODE       646  KCS=      0  X,Y,Z= 0.60500E-001 0.14050      0.90500E-001

 NODE       647  KCS=      0  X,Y,Z= 0.60500E-001 0.16050      0.90500E-001

 NODE       648  KCS=      0  X,Y,Z= 0.60500E-001 0.18050      0.90500E-001

 NODE       649  KCS=      0  X,Y,Z= 0.60500E-001 0.20050      0.90500E-001

 NODE       650  KCS=      0  X,Y,Z= 0.80500E-001 0.50000E-003 0.90500E-001

 NODE       651  KCS=      0  X,Y,Z= 0.80500E-001 0.20500E-001 0.90500E-001

 NODE       652  KCS=      0  X,Y,Z= 0.80500E-001 0.40500E-001 0.90500E-001

 NODE       653  KCS=      0  X,Y,Z= 0.80500E-001 0.60500E-001 0.90500E-001

 NODE       654  KCS=      0  X,Y,Z= 0.80500E-001 0.80500E-001 0.90500E-001

 NODE       655  KCS=      0  X,Y,Z= 0.80500E-001 0.10050      0.90500E-001

 NODE       656  KCS=      0  X,Y,Z= 0.80500E-001 0.12050      0.90500E-001

 NODE       657  KCS=      0  X,Y,Z= 0.80500E-001 0.14050      0.90500E-001

 NODE       658  KCS=      0  X,Y,Z= 0.80500E-001 0.16050      0.90500E-001

 NODE       659  KCS=      0  X,Y,Z= 0.80500E-001 0.18050      0.90500E-001

 NODE       660  KCS=      0  X,Y,Z= 0.80500E-001 0.20050      0.90500E-001

 NODE       661  KCS=      0  X,Y,Z= 0.10050      0.50000E-003 0.90500E-001

 NODE       662  KCS=      0  X,Y,Z= 0.10050      0.20500E-001 0.90500E-001

 NODE       663  KCS=      0  X,Y,Z= 0.10050      0.40500E-001 0.90500E-001

 NODE       664  KCS=      0  X,Y,Z= 0.10050      0.60500E-001 0.90500E-001

 NODE       665  KCS=      0  X,Y,Z= 0.10050      0.80500E-001 0.90500E-001

 NODE       666  KCS=      0  X,Y,Z= 0.10050      0.10050      0.90500E-001

 NODE       667  KCS=      0  X,Y,Z= 0.10050      0.12050      0.90500E-001

 NODE       668  KCS=      0  X,Y,Z= 0.10050      0.14050      0.90500E-001

 NODE       669  KCS=      0  X,Y,Z= 0.10050      0.16050      0.90500E-001

 NODE       670  KCS=      0  X,Y,Z= 0.10050      0.18050      0.90500E-001

 NODE       671  KCS=      0  X,Y,Z= 0.10050      0.20050      0.90500E-001

 NODE       672  KCS=      0  X,Y,Z= 0.12050      0.50000E-003 0.90500E-001

 NODE       673  KCS=      0  X,Y,Z= 0.12050      0.20500E-001 0.90500E-001

 NODE       674  KCS=      0  X,Y,Z= 0.12050      0.40500E-001 0.90500E-001

 NODE       675  KCS=      0  X,Y,Z= 0.12050      0.60500E-001 0.90500E-001

 NODE       676  KCS=      0  X,Y,Z= 0.12050      0.80500E-001 0.90500E-001

 NODE       677  KCS=      0  X,Y,Z= 0.12050      0.10050      0.90500E-001

 NODE       678  KCS=      0  X,Y,Z= 0.12050      0.12050      0.90500E-001

 NODE       679  KCS=      0  X,Y,Z= 0.12050      0.14050      0.90500E-001

 NODE       680  KCS=      0  X,Y,Z= 0.12050      0.16050      0.90500E-001

 NODE       681  KCS=      0  X,Y,Z= 0.12050      0.18050      0.90500E-001

 NODE       682  KCS=      0  X,Y,Z= 0.12050      0.20050      0.90500E-001

 NODE       683  KCS=      0  X,Y,Z= 0.14050      0.50000E-003 0.90500E-001

 NODE       684  KCS=      0  X,Y,Z= 0.14050      0.20500E-001 0.90500E-001

 NODE       685  KCS=      0  X,Y,Z= 0.14050      0.40500E-001 0.90500E-001

 NODE       686  KCS=      0  X,Y,Z= 0.14050      0.60500E-001 0.90500E-001

 NODE       687  KCS=      0  X,Y,Z= 0.14050      0.80500E-001 0.90500E-001

 NODE       688  KCS=      0  X,Y,Z= 0.14050      0.10050      0.90500E-001

 NODE       689  KCS=      0  X,Y,Z= 0.14050      0.12050      0.90500E-001

 NODE       690  KCS=      0  X,Y,Z= 0.14050      0.14050      0.90500E-001

 NODE       691  KCS=      0  X,Y,Z= 0.14050      0.16050      0.90500E-001

 NODE       692  KCS=      0  X,Y,Z= 0.14050      0.18050      0.90500E-001

 NODE       693  KCS=      0  X,Y,Z= 0.14050      0.20050      0.90500E-001

 NODE       694  KCS=      0  X,Y,Z= 0.16050      0.50000E-003 0.90500E-001

 NODE       695  KCS=      0  X,Y,Z= 0.16050      0.20500E-001 0.90500E-001

 NODE       696  KCS=      0  X,Y,Z= 0.16050      0.40500E-001 0.90500E-001

 NODE       697  KCS=      0  X,Y,Z= 0.16050      0.60500E-001 0.90500E-001

 NODE       698  KCS=      0  X,Y,Z= 0.16050      0.80500E-001 0.90500E-001

 NODE       699  KCS=      0  X,Y,Z= 0.16050      0.10050      0.90500E-001

 NODE       700  KCS=      0  X,Y,Z= 0.16050      0.12050      0.90500E-001

 NODE       701  KCS=      0  X,Y,Z= 0.16050      0.14050      0.90500E-001

 NODE       702  KCS=      0  X,Y,Z= 0.16050      0.16050      0.90500E-001

 NODE       703  KCS=      0  X,Y,Z= 0.16050      0.18050      0.90500E-001

 NODE       704  KCS=      0  X,Y,Z= 0.16050      0.20050      0.90500E-001

 NODE       705  KCS=      0  X,Y,Z= 0.18050      0.50000E-003 0.90500E-001

 NODE       706  KCS=      0  X,Y,Z= 0.18050      0.20500E-001 0.90500E-001

 NODE       707  KCS=      0  X,Y,Z= 0.18050      0.40500E-001 0.90500E-001

 NODE       708  KCS=      0  X,Y,Z= 0.18050      0.60500E-001 0.90500E-001

 NODE       709  KCS=      0  X,Y,Z= 0.18050      0.80500E-001 0.90500E-001

 NODE       710  KCS=      0  X,Y,Z= 0.18050      0.10050      0.90500E-001

 NODE       711  KCS=      0  X,Y,Z= 0.18050      0.12050      0.90500E-001

 NODE       712  KCS=      0  X,Y,Z= 0.18050      0.14050      0.90500E-001

 NODE       713  KCS=      0  X,Y,Z= 0.18050      0.16050      0.90500E-001

 NODE       714  KCS=      0  X,Y,Z= 0.18050      0.18050      0.90500E-001

 NODE       715  KCS=      0  X,Y,Z= 0.18050      0.20050      0.90500E-001

 NODE       716  KCS=      0  X,Y,Z= 0.20050      0.50000E-003 0.90500E-001

 NODE       717  KCS=      0  X,Y,Z= 0.20050      0.20500E-001 0.90500E-001

 NODE       718  KCS=      0  X,Y,Z= 0.20050      0.40500E-001 0.90500E-001

 NODE       719  KCS=      0  X,Y,Z= 0.20050      0.60500E-001 0.90500E-001

 NODE       720  KCS=      0  X,Y,Z= 0.20050      0.80500E-001 0.90500E-001

 NODE       721  KCS=      0  X,Y,Z= 0.20050      0.10050      0.90500E-001

 NODE       722  KCS=      0  X,Y,Z= 0.20050      0.12050      0.90500E-001

 NODE       723  KCS=      0  X,Y,Z= 0.20050      0.14050      0.90500E-001

 NODE       724  KCS=      0  X,Y,Z= 0.20050      0.16050      0.90500E-001

 NODE       725  KCS=      0  X,Y,Z= 0.20050      0.18050      0.90500E-001

 NODE       726  KCS=      0  X,Y,Z= 0.20050      0.20050      0.90500E-001

 NODE       727  KCS=      0  X,Y,Z= 0.50000E-003 0.50000E-003 0.11050     

 NODE       728  KCS=      0  X,Y,Z= 0.50000E-003 0.20500E-001 0.11050     

 NODE       729  KCS=      0  X,Y,Z= 0.50000E-003 0.40500E-001 0.11050     

 NODE       730  KCS=      0  X,Y,Z= 0.50000E-003 0.60500E-001 0.11050     

 NODE       731  KCS=      0  X,Y,Z= 0.50000E-003 0.80500E-001 0.11050     

 NODE       732  KCS=      0  X,Y,Z= 0.50000E-003 0.10050      0.11050     

 NODE       733  KCS=      0  X,Y,Z= 0.50000E-003 0.12050      0.11050     

 NODE       734  KCS=      0  X,Y,Z= 0.50000E-003 0.14050      0.11050     

 NODE       735  KCS=      0  X,Y,Z= 0.50000E-003 0.16050      0.11050     

 NODE       736  KCS=      0  X,Y,Z= 0.50000E-003 0.18050      0.11050     

 NODE       737  KCS=      0  X,Y,Z= 0.50000E-003 0.20050      0.11050     

 NODE       738  KCS=      0  X,Y,Z= 0.20500E-001 0.50000E-003 0.11050     

 NODE       739  KCS=      0  X,Y,Z= 0.20500E-001 0.20500E-001 0.11050     

 NODE       740  KCS=      0  X,Y,Z= 0.20500E-001 0.40500E-001 0.11050     

 NODE       741  KCS=      0  X,Y,Z= 0.20500E-001 0.60500E-001 0.11050     

 NODE       742  KCS=      0  X,Y,Z= 0.20500E-001 0.80500E-001 0.11050     

 NODE       743  KCS=      0  X,Y,Z= 0.20500E-001 0.10050      0.11050     

 NODE       744  KCS=      0  X,Y,Z= 0.20500E-001 0.12050      0.11050     

 NODE       745  KCS=      0  X,Y,Z= 0.20500E-001 0.14050      0.11050     

 NODE       746  KCS=      0  X,Y,Z= 0.20500E-001 0.16050      0.11050     

 NODE       747  KCS=      0  X,Y,Z= 0.20500E-001 0.18050      0.11050     

 NODE       748  KCS=      0  X,Y,Z= 0.20500E-001 0.20050      0.11050     

 NODE       749  KCS=      0  X,Y,Z= 0.40500E-001 0.50000E-003 0.11050     

 NODE       750  KCS=      0  X,Y,Z= 0.40500E-001 0.20500E-001 0.11050     

 NODE       751  KCS=      0  X,Y,Z= 0.40500E-001 0.40500E-001 0.11050     

 NODE       752  KCS=      0  X,Y,Z= 0.40500E-001 0.60500E-001 0.11050     

 NODE       753  KCS=      0  X,Y,Z= 0.40500E-001 0.80500E-001 0.11050     

 NODE       754  KCS=      0  X,Y,Z= 0.40500E-001 0.10050      0.11050     

 NODE       755  KCS=      0  X,Y,Z= 0.40500E-001 0.12050      0.11050     

 NODE       756  KCS=      0  X,Y,Z= 0.40500E-001 0.14050      0.11050     

 NODE       757  KCS=      0  X,Y,Z= 0.40500E-001 0.16050      0.11050     

 NODE       758  KCS=      0  X,Y,Z= 0.40500E-001 0.18050      0.11050     

 NODE       759  KCS=      0  X,Y,Z= 0.40500E-001 0.20050      0.11050     

 NODE       760  KCS=      0  X,Y,Z= 0.60500E-001 0.50000E-003 0.11050     

 NODE       761  KCS=      0  X,Y,Z= 0.60500E-001 0.20500E-001 0.11050     

 NODE       762  KCS=      0  X,Y,Z= 0.60500E-001 0.40500E-001 0.11050     

 NODE       763  KCS=      0  X,Y,Z= 0.60500E-001 0.60500E-001 0.11050     

 NODE       764  KCS=      0  X,Y,Z= 0.60500E-001 0.80500E-001 0.11050     

 NODE       765  KCS=      0  X,Y,Z= 0.60500E-001 0.10050      0.11050     

 NODE       766  KCS=      0  X,Y,Z= 0.60500E-001 0.12050      0.11050     

 NODE       767  KCS=      0  X,Y,Z= 0.60500E-001 0.14050      0.11050     

 NODE       768  KCS=      0  X,Y,Z= 0.60500E-001 0.16050      0.11050     

 NODE       769  KCS=      0  X,Y,Z= 0.60500E-001 0.18050      0.11050     

 NODE       770  KCS=      0  X,Y,Z= 0.60500E-001 0.20050      0.11050     

 NODE       771  KCS=      0  X,Y,Z= 0.80500E-001 0.50000E-003 0.11050     

 NODE       772  KCS=      0  X,Y,Z= 0.80500E-001 0.20500E-001 0.11050     

 NODE       773  KCS=      0  X,Y,Z= 0.80500E-001 0.40500E-001 0.11050     

 NODE       774  KCS=      0  X,Y,Z= 0.80500E-001 0.60500E-001 0.11050     

 NODE       775  KCS=      0  X,Y,Z= 0.80500E-001 0.80500E-001 0.11050     

 NODE       776  KCS=      0  X,Y,Z= 0.80500E-001 0.10050      0.11050     

 NODE       777  KCS=      0  X,Y,Z= 0.80500E-001 0.12050      0.11050     

 NODE       778  KCS=      0  X,Y,Z= 0.80500E-001 0.14050      0.11050     

 NODE       779  KCS=      0  X,Y,Z= 0.80500E-001 0.16050      0.11050     

 NODE       780  KCS=      0  X,Y,Z= 0.80500E-001 0.18050      0.11050     

 NODE       781  KCS=      0  X,Y,Z= 0.80500E-001 0.20050      0.11050     

 NODE       782  KCS=      0  X,Y,Z= 0.10050      0.50000E-003 0.11050     

 NODE       783  KCS=      0  X,Y,Z= 0.10050      0.20500E-001 0.11050     

 NODE       784  KCS=      0  X,Y,Z= 0.10050      0.40500E-001 0.11050     

 NODE       785  KCS=      0  X,Y,Z= 0.10050      0.60500E-001 0.11050     

 NODE       786  KCS=      0  X,Y,Z= 0.10050      0.80500E-001 0.11050     

 NODE       787  KCS=      0  X,Y,Z= 0.10050      0.10050      0.11050     

 NODE       788  KCS=      0  X,Y,Z= 0.10050      0.12050      0.11050     

 NODE       789  KCS=      0  X,Y,Z= 0.10050      0.14050      0.11050     

 NODE       790  KCS=      0  X,Y,Z= 0.10050      0.16050      0.11050     

 NODE       791  KCS=      0  X,Y,Z= 0.10050      0.18050      0.11050     

 NODE       792  KCS=      0  X,Y,Z= 0.10050      0.20050      0.11050     

 NODE       793  KCS=      0  X,Y,Z= 0.12050      0.50000E-003 0.11050     

 NODE       794  KCS=      0  X,Y,Z= 0.12050      0.20500E-001 0.11050     

 NODE       795  KCS=      0  X,Y,Z= 0.12050      0.40500E-001 0.11050     

 NODE       796  KCS=      0  X,Y,Z= 0.12050      0.60500E-001 0.11050     

 NODE       797  KCS=      0  X,Y,Z= 0.12050      0.80500E-001 0.11050     

 NODE       798  KCS=      0  X,Y,Z= 0.12050      0.10050      0.11050     

 NODE       799  KCS=      0  X,Y,Z= 0.12050      0.12050      0.11050     

 NODE       800  KCS=      0  X,Y,Z= 0.12050      0.14050      0.11050     

 NODE       801  KCS=      0  X,Y,Z= 0.12050      0.16050      0.11050     

 NODE       802  KCS=      0  X,Y,Z= 0.12050      0.18050      0.11050     

 NODE       803  KCS=      0  X,Y,Z= 0.12050      0.20050      0.11050     

 NODE       804  KCS=      0  X,Y,Z= 0.14050      0.50000E-003 0.11050     

 NODE       805  KCS=      0  X,Y,Z= 0.14050      0.20500E-001 0.11050     

 NODE       806  KCS=      0  X,Y,Z= 0.14050      0.40500E-001 0.11050     

 NODE       807  KCS=      0  X,Y,Z= 0.14050      0.60500E-001 0.11050     

 NODE       808  KCS=      0  X,Y,Z= 0.14050      0.80500E-001 0.11050     

 NODE       809  KCS=      0  X,Y,Z= 0.14050      0.10050      0.11050     

 NODE       810  KCS=      0  X,Y,Z= 0.14050      0.12050      0.11050     

 NODE       811  KCS=      0  X,Y,Z= 0.14050      0.14050      0.11050     

 NODE       812  KCS=      0  X,Y,Z= 0.14050      0.16050      0.11050     

 NODE       813  KCS=      0  X,Y,Z= 0.14050      0.18050      0.11050     

 NODE       814  KCS=      0  X,Y,Z= 0.14050      0.20050      0.11050     

 NODE       815  KCS=      0  X,Y,Z= 0.16050      0.50000E-003 0.11050     

 NODE       816  KCS=      0  X,Y,Z= 0.16050      0.20500E-001 0.11050     

 NODE       817  KCS=      0  X,Y,Z= 0.16050      0.40500E-001 0.11050     

 NODE       818  KCS=      0  X,Y,Z= 0.16050      0.60500E-001 0.11050     

 NODE       819  KCS=      0  X,Y,Z= 0.16050      0.80500E-001 0.11050     

 NODE       820  KCS=      0  X,Y,Z= 0.16050      0.10050      0.11050     

 NODE       821  KCS=      0  X,Y,Z= 0.16050      0.12050      0.11050     

 NODE       822  KCS=      0  X,Y,Z= 0.16050      0.14050      0.11050     

 NODE       823  KCS=      0  X,Y,Z= 0.16050      0.16050      0.11050     

 NODE       824  KCS=      0  X,Y,Z= 0.16050      0.18050      0.11050     

 NODE       825  KCS=      0  X,Y,Z= 0.16050      0.20050      0.11050     

 NODE       826  KCS=      0  X,Y,Z= 0.18050      0.50000E-003 0.11050     

 NODE       827  KCS=      0  X,Y,Z= 0.18050      0.20500E-001 0.11050     

 NODE       828  KCS=      0  X,Y,Z= 0.18050      0.40500E-001 0.11050     

 NODE       829  KCS=      0  X,Y,Z= 0.18050      0.60500E-001 0.11050     

 NODE       830  KCS=      0  X,Y,Z= 0.18050      0.80500E-001 0.11050     

 NODE       831  KCS=      0  X,Y,Z= 0.18050      0.10050      0.11050     

 NODE       832  KCS=      0  X,Y,Z= 0.18050      0.12050      0.11050     

 NODE       833  KCS=      0  X,Y,Z= 0.18050      0.14050      0.11050     

 NODE       834  KCS=      0  X,Y,Z= 0.18050      0.16050      0.11050     

 NODE       835  KCS=      0  X,Y,Z= 0.18050      0.18050      0.11050     

 NODE       836  KCS=      0  X,Y,Z= 0.18050      0.20050      0.11050     

 NODE       837  KCS=      0  X,Y,Z= 0.20050      0.50000E-003 0.11050     

 NODE       838  KCS=      0  X,Y,Z= 0.20050      0.20500E-001 0.11050     

 NODE       839  KCS=      0  X,Y,Z= 0.20050      0.40500E-001 0.11050     

 NODE       840  KCS=      0  X,Y,Z= 0.20050      0.60500E-001 0.11050     

 NODE       841  KCS=      0  X,Y,Z= 0.20050      0.80500E-001 0.11050     

 NODE       842  KCS=      0  X,Y,Z= 0.20050      0.10050      0.11050     

 NODE       843  KCS=      0  X,Y,Z= 0.20050      0.12050      0.11050     

 NODE       844  KCS=      0  X,Y,Z= 0.20050      0.14050      0.11050     

 NODE       845  KCS=      0  X,Y,Z= 0.20050      0.16050      0.11050     

 NODE       846  KCS=      0  X,Y,Z= 0.20050      0.18050      0.11050     

 NODE       847  KCS=      0  X,Y,Z= 0.20050      0.20050      0.11050     

 /INPUT FILE= elements.txt  LINE=       0

 ELEMENT      1       1      2     13     12    122    123    134    133


 ELEMENT      2       2      3     14     13    123    124    135    134


 ELEMENT      3       3      4     15     14    124    125    136    135


 ELEMENT      4       4      5     16     15    125    126    137    136


 ELEMENT      5       5      6     17     16    126    127    138    137


 ELEMENT      6       6      7     18     17    127    128    139    138


 ELEMENT      7       7      8     19     18    128    129    140    139


 ELEMENT      8       8      9     20     19    129    130    141    140


 ELEMENT      9       9     10     21     20    130    131    142    141


 ELEMENT     10      10     11     22     21    131    132    143    142


 ELEMENT     11      12     13     24     23    133    134    145    144


 ELEMENT     12      13     14     25     24    134    135    146    145


 ELEMENT     13      14     15     26     25    135    136    147    146


 ELEMENT     14      15     16     27     26    136    137    148    147


 ELEMENT     15      16     17     28     27    137    138    149    148


 ELEMENT     16      17     18     29     28    138    139    150    149


 ELEMENT     17      18     19     30     29    139    140    151    150


 ELEMENT     18      19     20     31     30    140    141    152    151


 ELEMENT     19      20     21     32     31    141    142    153    152


 ELEMENT     20      21     22     33     32    142    143    154    153


 ELEMENT     21      23     24     35     34    144    145    156    155


 ELEMENT     22      24     25     36     35    145    146    157    156


 ELEMENT     23      25     26     37     36    146    147    158    157


 ELEMENT     24      26     27     38     37    147    148    159    158


 ELEMENT     25      27     28     39     38    148    149    160    159


 ELEMENT     26      28     29     40     39    149    150    161    160


 ELEMENT     27      29     30     41     40    150    151    162    161


 ELEMENT     28      30     31     42     41    151    152    163    162


 ELEMENT     29      31     32     43     42    152    153    164    163


 ELEMENT     30      32     33     44     43    153    154    165    164


 ELEMENT     31      34     35     46     45    155    156    167    166


 ELEMENT     32      35     36     47     46    156    157    168    167


 ELEMENT     33      36     37     48     47    157    158    169    168


 ELEMENT     34      37     38     49     48    158    159    170    169


 ELEMENT     35      38     39     50     49    159    160    171    170


 ELEMENT     36      39     40     51     50    160    161    172    171


 ELEMENT     37      40     41     52     51    161    162    173    172


 ELEMENT     38      41     42     53     52    162    163    174    173


 ELEMENT     39      42     43     54     53    163    164    175    174


 ELEMENT     40      43     44     55     54    164    165    176    175


 ELEMENT     41      45     46     57     56    166    167    178    177


 ELEMENT     42      46     47     58     57    167    168    179    178


 ELEMENT     43      47     48     59     58    168    169    180    179


 ELEMENT     44      48     49     60     59    169    170    181    180


 ELEMENT     45      49     50     61     60    170    171    182    181


 ELEMENT     46      50     51     62     61    171    172    183    182


 ELEMENT     47      51     52     63     62    172    173    184    183


 ELEMENT     48      52     53     64     63    173    174    185    184


 ELEMENT     49      53     54     65     64    174    175    186    185


 ELEMENT     50      54     55     66     65    175    176    187    186


 ELEMENT     51      56     57     68     67    177    178    189    188


[...]
 REAL=-2.222848600E-05   IMAG=  0.00000000    

 SPECIFIED CONSTRAINT UX   FOR SELECTED NODES       828 TO      828 BY        1
 REAL=-1.143791500E-05   IMAG=  0.00000000    

 SPECIFIED CONSTRAINT UY   FOR SELECTED NODES       828 TO      828 BY        1
 REAL= 4.063788000E-06   IMAG=  0.00000000    

 SPECIFIED CONSTRAINT UZ   FOR SELECTED NODES       828 TO      828 BY        1
 REAL=-2.166510500E-05   IMAG=  0.00000000    

 SPECIFIED CONSTRAINT UX   FOR SELECTED NODES       829 TO      829 BY        1
 REAL=-2.677533800E-05   IMAG=  0.00000000    

 SPECIFIED CONSTRAINT UY   FOR SELECTED NODES       829 TO      829 BY        1
 REAL= 1.302260200E-05   IMAG=  0.00000000    

 SPECIFIED CONSTRAINT UZ   FOR SELECTED NODES       829 TO      829 BY        1
 REAL=-2.150914600E-05   IMAG=  0.00000000    

 SPECIFIED CONSTRAINT UX   FOR SELECTED NODES       830 TO      830 BY        1
 REAL=-4.441318000E-05   IMAG=  0.00000000    

 SPECIFIED CONSTRAINT UY   FOR SELECTED NODES       830 TO      830 BY        1
 REAL= 3.605017300E-05   IMAG=  0.00000000    

 SPECIFIED CONSTRAINT UZ   FOR SELECTED NODES       830 TO      830 BY        1
 REAL=-2.128348800E-05   IMAG=  0.00000000    

 SPECIFIED CONSTRAINT UX   FOR SELECTED NODES       831 TO      831 BY        1
 REAL=-4.021398700E-05   IMAG=  0.00000000    

 SPECIFIED CONSTRAINT UY   FOR SELECTED NODES       831 TO      831 BY        1
 REAL= 1.886520000E-05   IMAG=  0.00000000    

 SPECIFIED CONSTRAINT UZ   FOR SELECTED NODES       831 TO      831 BY        1
 REAL=-1.147703200E-05   IMAG=  0.00000000    

 SPECIFIED CONSTRAINT UX   FOR SELECTED NODES       832 TO      832 BY        1
 REAL=-2.776085100E-05   IMAG=  0.00000000    

 SPECIFIED CONSTRAINT UY   FOR SELECTED NODES       832 TO      832 BY        1
 REAL= 3.676966000E-06   IMAG=  0.00000000    

 SPECIFIED CONSTRAINT UZ   FOR SELECTED NODES       832 TO      832 BY        1
 REAL= 3.016629000E-06   IMAG=  0.00000000    

 SPECIFIED CONSTRAINT UX   FOR SELECTED NODES       833 TO      833 BY        1
 REAL=-2.543020100E-05   IMAG=  0.00000000    

 SPECIFIED CONSTRAINT UY   FOR SELECTED NODES       833 TO      833 BY        1
 REAL=-1.607980300E-05   IMAG=  0.00000000    

 SPECIFIED CONSTRAINT UZ   FOR SELECTED NODES       833 TO      833 BY        1
 REAL= 3.745969000E-06   IMAG=  0.00000000    

 SPECIFIED CONSTRAINT UX   FOR SELECTED NODES       834 TO      834 BY        1
 REAL=-2.995908700E-05   IMAG=  0.00000000    

 SPECIFIED CONSTRAINT UY   FOR SELECTED NODES       834 TO      834 BY        1
 REAL=-2.701581400E-05   IMAG=  0.00000000    

 SPECIFIED CONSTRAINT UZ   FOR SELECTED NODES       834 TO      834 BY        1
 REAL=-1.444585500E-05   IMAG=  0.00000000    

 SPECIFIED CONSTRAINT UX   FOR SELECTED NODES       835 TO      835 BY        1
 REAL=-8.079642000E-06   IMAG=  0.00000000    

 SPECIFIED CONSTRAINT UY   FOR SELECTED NODES       835 TO      835 BY        1
 REAL=-1.333480700E-05   IMAG=  0.00000000    

 SPECIFIED CONSTRAINT UZ   FOR SELECTED NODES       835 TO      835 BY        1
 REAL=-6.448419000E-06   IMAG=  0.00000000    

 SPECIFIED CONSTRAINT UX   FOR SELECTED NODES       836 TO      836 BY        1
 REAL= 1.018254700E-05   IMAG=  0.00000000    

 SPECIFIED CONSTRAINT UY   FOR SELECTED NODES       836 TO      836 BY        1
 REAL=-1.968783700E-05   IMAG=  0.00000000    

 SPECIFIED CONSTRAINT UZ   FOR SELECTED NODES       836 TO      836 BY        1
 REAL= 1.438658200E-05   IMAG=  0.00000000    

 SPECIFIED CONSTRAINT UX   FOR SELECTED NODES       837 TO      837 BY        1
 REAL=-7.060014400E-05   IMAG=  0.00000000    

 SPECIFIED CONSTRAINT UY   FOR SELECTED NODES       837 TO      837 BY        1
 REAL=-7.708195000E-05   IMAG=  0.00000000    

 SPECIFIED CONSTRAINT UZ   FOR SELECTED NODES       837 TO      837 BY        1
 REAL=-1.891414700E-05   IMAG=  0.00000000    

 SPECIFIED CONSTRAINT UX   FOR SELECTED NODES       838 TO      838 BY        1
 REAL=-1.381580100E-05   IMAG=  0.00000000    

 SPECIFIED CONSTRAINT UY   FOR SELECTED NODES       838 TO      838 BY        1
 REAL= 6.026397000E-06   IMAG=  0.00000000    

 SPECIFIED CONSTRAINT UZ   FOR SELECTED NODES       838 TO      838 BY        1
 REAL= 8.980365000E-06   IMAG=  0.00000000    

 SPECIFIED CONSTRAINT UX   FOR SELECTED NODES       839 TO      839 BY        1
 REAL=-3.312556000E-06   IMAG=  0.00000000    

 SPECIFIED CONSTRAINT UY   FOR SELECTED NODES       839 TO      839 BY        1
 REAL=-3.118872000E-05   IMAG=  0.00000000    

 SPECIFIED CONSTRAINT UZ   FOR SELECTED NODES       839 TO      839 BY        1
 REAL=-2.222227600E-05   IMAG=  0.00000000    

 SPECIFIED CONSTRAINT UX   FOR SELECTED NODES       840 TO      840 BY        1
 REAL=-1.510209500E-05   IMAG=  0.00000000    

 SPECIFIED CONSTRAINT UY   FOR SELECTED NODES       840 TO      840 BY        1
 REAL= 1.883756000E-06   IMAG=  0.00000000    

 SPECIFIED CONSTRAINT UZ   FOR SELECTED NODES       840 TO      840 BY        1
 REAL=-1.904289600E-05   IMAG=  0.00000000    

 SPECIFIED CONSTRAINT UX   FOR SELECTED NODES       841 TO      841 BY        1
 REAL=-5.465547000E-05   IMAG=  0.00000000    

 SPECIFIED CONSTRAINT UY   FOR SELECTED NODES       841 TO      841 BY        1
 REAL= 4.907977900E-05   IMAG=  0.00000000    

 SPECIFIED CONSTRAINT UZ   FOR SELECTED NODES       841 TO      841 BY        1
 REAL=-1.394995300E-05   IMAG=  0.00000000    

 SPECIFIED CONSTRAINT UX   FOR SELECTED NODES       842 TO      842 BY        1
 REAL=-4.626140200E-05   IMAG=  0.00000000    

 SPECIFIED CONSTRAINT UY   FOR SELECTED NODES       842 TO      842 BY        1
 REAL= 5.419341500E-05   IMAG=  0.00000000    

 SPECIFIED CONSTRAINT UZ   FOR SELECTED NODES       842 TO      842 BY        1
 REAL= 7.617359000E-06   IMAG=  0.00000000    

 SPECIFIED CONSTRAINT UX   FOR SELECTED NODES       843 TO      843 BY        1
 REAL=-4.629670300E-05   IMAG=  0.00000000    

 SPECIFIED CONSTRAINT UY   FOR SELECTED NODES       843 TO      843 BY        1
 REAL=-4.698435000E-06   IMAG=  0.00000000    

 SPECIFIED CONSTRAINT UZ   FOR SELECTED NODES       843 TO      843 BY        1
 REAL= 1.144596400E-05   IMAG=  0.00000000    

 SPECIFIED CONSTRAINT UX   FOR SELECTED NODES       844 TO      844 BY        1
 REAL=-2.433669700E-05   IMAG=  0.00000000    

 SPECIFIED CONSTRAINT UY   FOR SELECTED NODES       844 TO      844 BY        1
 REAL=-2.235491900E-05   IMAG=  0.00000000    

 SPECIFIED CONSTRAINT UZ   FOR SELECTED NODES       844 TO      844 BY        1
 REAL= 2.801225400E-05   IMAG=  0.00000000    

 SPECIFIED CONSTRAINT UX   FOR SELECTED NODES       845 TO      845 BY        1
 REAL=-1.371847300E-05   IMAG=  0.00000000    

 SPECIFIED CONSTRAINT UY   FOR SELECTED NODES       845 TO      845 BY        1
 REAL= 9.502008000E-06   IMAG=  0.00000000    

 SPECIFIED CONSTRAINT UZ   FOR SELECTED NODES       845 TO      845 BY        1
 REAL= 1.556718600E-05   IMAG=  0.00000000    

 SPECIFIED CONSTRAINT UX   FOR SELECTED NODES       846 TO      846 BY        1
 REAL=-1.467780100E-05   IMAG=  0.00000000    

 SPECIFIED CONSTRAINT UY   FOR SELECTED NODES       846 TO      846 BY        1
 REAL=-2.056495000E-05   IMAG=  0.00000000    

 SPECIFIED CONSTRAINT UZ   FOR SELECTED NODES       846 TO      846 BY        1
 REAL= 1.873800100E-05   IMAG=  0.00000000    

 SPECIFIED CONSTRAINT UX   FOR SELECTED NODES       847 TO      847 BY        1
 REAL= 2.022899900E-05   IMAG=  0.00000000    

 SPECIFIED CONSTRAINT UY   FOR SELECTED NODES       847 TO      847 BY        1
 REAL=-4.099455000E-05   IMAG=  0.00000000    

 SPECIFIED CONSTRAINT UZ   FOR SELECTED NODES       847 TO      847 BY        1
 REAL= 1.995217000E-06   IMAG=  0.00000000    

 SELECT ALL ENTITIES OF TYPE= ALL  AND BELOW

 USE PRECONDITIONED CONJUGATE GRADIENT SOLVER
  CONVERGENCE TOLERANCE = 1.00000E-08
  MAXIMUM ITERATION     = NumNode*DofPerNode*  1.0000    

 *****  ANSYS SOLVE    COMMAND  *****

 *** NOTE ***                            CP =       0.417   TIME= 17:59:09
 There is no title defined for this analysis.                            

 *** SELECTION OF ELEMENT TECHNOLOGIES FOR APPLICABLE ELEMENTS ***
                ---GIVE SUGGESTIONS ONLY---

 ELEMENT TYPE    1 IS SOLID185. IT IS ASSOCIATED WITH LINEAR MATERIALS ONLY
 AND POISSON'S RATIO IS NOT GREATER THAN 0.49. KEYOPT(2)=3 IS SUGGESTED.



 *** ANSYS - ENGINEERING ANALYSIS SYSTEM  RELEASE Release 17.2     17.2     ***
 ANSYS Academic Research                           
 00210476  VERSION=LINUX x64     17:59:09  JUL 26, 2019 CP=      0.419

                                                                               



                       S O L U T I O N   O P T I O N S

   PROBLEM DIMENSIONALITY. . . . . . . . . . . . .3-D                  
   DEGREES OF FREEDOM. . . . . . UX   UY   UZ  
   ANALYSIS TYPE . . . . . . . . . . . . . . . . .STATIC (STEADY-STATE)
   EQUATION SOLVER OPTION. . . . . . . . . . . . .PCG                
      TOLERANCE. . . . . . . . . . . . . . . . . . 1.00000E-08
   GLOBALLY ASSEMBLED MATRIX . . . . . . . . . . .SYMMETRIC  

 *** NOTE ***                            CP =       0.420   TIME= 17:59:09
 Present time 0 is less than or equal to the previous time.  Time will   
 default to 1.                                                           

 *** NOTE ***                            CP =       0.420   TIME= 17:59:09
 The conditions for direct assembly have been met.  No .emat or .erot    
 files will be produced.                                                 

                      L O A D   S T E P   O P T I O N S

   LOAD STEP NUMBER. . . . . . . . . . . . . . . .     1
   TIME AT END OF THE LOAD STEP. . . . . . . . . .  1.0000    
   NUMBER OF SUBSTEPS. . . . . . . . . . . . . . .     1
   STEP CHANGE BOUNDARY CONDITIONS . . . . . . . .    NO
   PRINT OUTPUT CONTROLS . . . . . . . . . . . . .NO PRINTOUT
   DATABASE OUTPUT CONTROLS. . . . . . . . . . . .ALL DATA WRITTEN
                                                  FOR THE LAST SUBSTEP


 SOLUTION MONITORING INFO IS WRITTEN TO FILE= input.mntr                                                                                                                                                                                                                                                          


 *** NOTE ***                            CP =       0.436   TIME= 17:59:09
 The PCG solver has automatically set the level of difficulty for this   
 model to 1.                                                             

 Range of element maximum matrix coefficients in global coordinates
 Maximum = 66.1413818 at element 496.                                    
 Minimum = 66.1413818 at element 478.                                    

   *** ELEMENT MATRIX FORMULATION TIMES
  TYPE    NUMBER   ENAME      TOTAL CP  AVE CP

     1       600  SOLID185      0.062   0.000103
 Time at end of element matrix formulation CP = 0.509561002.             

 PRECONDITIONED SOLVER CP TIME      =     0.000
 PRECONDITIONED SOLVER ELAPSED TIME =     0.016

   *** ELEMENT RESULT CALCULATION TIMES
  TYPE    NUMBER   ENAME      TOTAL CP  AVE CP

     1       600  SOLID185      0.042   0.000071

   *** NODAL LOAD CALCULATION TIMES
  TYPE    NUMBER   ENAME      TOTAL CP  AVE CP

     1       600  SOLID185      0.002   0.000004
 *** LOAD STEP     1   SUBSTEP     1  COMPLETED.    CUM ITER =      1
 *** TIME =   1.00000         TIME INC =   1.00000      NEW TRIANG MATRIX


 *** ANSYS BINARY FILE STATISTICS
  BUFFER SIZE USED= 16384
        1.125 MB WRITTEN ON RESULTS FILE: input.rst

 FINISH SOLUTION PROCESSING


 ***** ROUTINE COMPLETED *****  CP =         0.577



 *** ANSYS - ENGINEERING ANALYSIS SYSTEM  RELEASE Release 17.2     17.2     ***
 ANSYS Academic Research                           
 00210476  VERSION=LINUX x64     17:59:09  JUL 26, 2019 CP=      0.577

                                                                               



          ***** ANSYS ANALYSIS DEFINITION (PREP7) *****

 *** WARNING ***                         CP =       0.577   TIME= 17:59:09
 /SET is not a recognized PREP7 command, abbreviation, or macro.         
  This command will be ignored.                                          

 *** ANSYS GLOBAL STATUS *** 

 TITLE =                                                                       
 ANALYSIS TYPE =  STATIC (STEADY-STATE)
 NUMBER OF ELEMENT TYPES =      1
       600 ELEMENTS CURRENTLY SELECTED.  MAX ELEMENT NUMBER =         600
       847 NODES CURRENTLY SELECTED.     MAX NODE NUMBER =            847

 WRITE ANSYS DATABASE AS AN ANSYS INPUT FILE: input.CDB                                                                                                                                                                                                                                                           


 ***** ROUTINE COMPLETED *****  CP =         0.585



 *** ANSYS - ENGINEERING ANALYSIS SYSTEM  RELEASE Release 17.2     17.2     ***
 ANSYS Academic Research                           
 00210476  VERSION=LINUX x64     17:59:09  JUL 26, 2019 CP=      0.596

                                                                               



          ***** ANSYS RESULTS INTERPRETATION (POST1) *****

 *** NOTE ***                            CP =       0.597   TIME= 17:59:09
 Reading results into the database (SET command) will update the current 
 displacement and force boundary conditions in the database with the     
 values from the results file for that load set.  Note that any          
 subsequent solutions will use these values unless action is taken to    
 either SAVE the current values or not overwrite them (/EXIT,NOSAVE).    

 /OUTPUT FILE= ANSYS_results.txt

 /OUTPUT FILE= ANSYS_results_xyz.txt

 STORE STRAINXX FROM ITEM=EPEL COMP=X     FOR ALL SELECTED ELEMENTS

 STORE STRAINYY FROM ITEM=EPEL COMP=Y     FOR ALL SELECTED ELEMENTS

 STORE STRAINZZ FROM ITEM=EPEL COMP=Z     FOR ALL SELECTED ELEMENTS

 STORE STRAINXY FROM ITEM=EPEL COMP=XY    FOR ALL SELECTED ELEMENTS

 STORE STRAINYZ FROM ITEM=EPEL COMP=YZ    FOR ALL SELECTED ELEMENTS

 STORE STRAINXZ FROM ITEM=EPEL COMP=XZ    FOR ALL SELECTED ELEMENTS

 STORE STRAIN1  FROM ITEM=EPEL COMP=1     FOR ALL SELECTED ELEMENTS

 STORE STRAIN2  FROM ITEM=EPEL COMP=2     FOR ALL SELECTED ELEMENTS

 STORE STRAIN3  FROM ITEM=EPEL COMP=3     FOR ALL SELECTED ELEMENTS

 *GET  NELEMENTS  FROM  ELEM  ITEM=COUN           VALUE=  600.000000    

 PARAMETER STATUS- NELEMENTS  (      3 PARAMETERS DEFINED)
                  (INCLUDING        2 INTERNAL PARAMETERS)

 NAME                              VALUE                        TYPE  DIMENSIONS
 NELEMENTS                         600.000000                  SCALAR

 SET PARAMETER DIMENSIONS ON  VDATA TYPE=ARRA  DIMENSIONS=   600     7     1

 SET PARAMETER DIMENSIONS ON  VDATA2 TYPE=ARRA  DIMENSIONS=   600     4     1

 PARAMETER N =     0.000000000    

 *DO LOOP ON PARAMETER= I FROM  1.0000     TO  600.00     BY  1.0000    

 *GET  ELEMNUM   FROM  ELEM  ITEM=NXTH           VALUE=  1.00000000    

 PARAMETER VDATA(I,1) =     1.000000000    

 *GET  VDATA     FROM  ETAB  ITEM=ELEM ELEM  VALUE= 0.832799988E-03

 *GET  VDATA     FROM  ETAB  ITEM=ELEM ELEM  VALUE= 0.233213295E-02

 *GET  VDATA     FROM  ETAB  ITEM=ELEM ELEM  VALUE=-0.840640375E-04

 *GET  VDATA     FROM  ETAB  ITEM=ELEM ELEM  VALUE= 0.272438914E-02

 *GET  VDATA     FROM  ETAB  ITEM=ELEM ELEM  VALUE= 0.248479756E-02

 *GET  VDATA     FROM  ETAB  ITEM=ELEM ELEM  VALUE= 0.873121925E-03

 PARAMETER VDATA2(I,1) =     1.000000000    

 *GET  VDATA2    FROM  ETAB  ITEM=ELEM ELEM  VALUE= 0.359330415E-02

 *GET  VDATA2    FROM  ETAB  ITEM=ELEM ELEM  VALUE= 0.115108048E-03

 *GET  VDATA2    FROM  ETAB  ITEM=ELEM ELEM  VALUE=-0.627543299E-03

 PARAMETER N =     1.000000000    

 *ENDDO  INDEX= I                               

 OPENED FILE= ANSYS_results_elements_xyz.txt FOR COMMAND FILE DATA 


  COMMAND FILE CLOSED 


 OPENED FILE= ANSYS_results_elements.txt FOR COMMAND FILE DATA 


  COMMAND FILE CLOSED 


 EXIT THE ANSYS POST1 DATABASE PROCESSOR


 ***** ROUTINE COMPLETED *****  CP =         0.722



 ***** END OF INPUT ENCOUNTERED *****

 PURGE ALL SOLUTION AND POST DATA
 SAVE ALL MODEL DATA

 ALL CURRENT ANSYS DATA WRITTEN TO FILE NAME= input.db
  FOR POSSIBLE RESUME FROM THIS POINT


 NUMBER OF WARNING MESSAGES ENCOUNTERED=          1
 NUMBER OF ERROR   MESSAGES ENCOUNTERED=          0

+--------------------- A N S Y S   S T A T I S T I C S ------------------------+

Release: Release 17.2       Build: 17.2       Update: UP20160718   Platform: LINUX x64   
Date Run: 07/26/2019   Time: 17:59
Operating System: CentOS Linux release 7.6.1810 (Core)

Processor Model: Intel(R) Xeon(R) CPU E5-2630 v4 @ 2.20GHz

Compiler: Intel(R) FORTRAN Compiler Version 15.0.2  (Build: 20150121)
          Intel(R) C/C++ Compiler Version 15.0.2  (Build: 20150121)
          Intel(R) Math Kernel Library Version 11.2.3 Product Build 20150409

Number of machines requested            :    1
Total number of cores available         :   20
Number of physical cores available      :   20
Number of processes requested           :    1
Number of threads per process requested :    2
Total number of cores requested         :    2 (Shared Memory Parallel)                    

GPU Acceleration: Not Requested

Job Name: input
Input File: /shared/multisim2/DVC/ShIRTImagesResults/me1ibe/3DExpansion/Results/Specimen1/VOI0/NodeSpacing20/input.txt
Working Directory: /tmp/usecase8803631179209314576dir

Total CPU time for main thread                    :        0.8 seconds
Total CPU time summed for all threads             :        0.7 seconds

Elapsed time spent pre-processing model (/PREP7)  :        0.0 seconds
Elapsed time spent solution - preprocessing       :        0.0 seconds
Elapsed time spent computing solution             :        0.3 seconds
Elapsed time spent solution - postprocessing      :        0.0 seconds
Elapsed time spent post-processing model (/POST1) :        0.2 seconds
 
Equation solver used                              :            PCG (symmetric)

Maximum total memory used                         :       12.0 MB
Maximum total memory allocated                    :     2112.0 MB
Maximum total memory available                    :        252 GB

+------------------ E N D   A N S Y S   S T A T I S T I C S -------------------+


 *---------------------------------------------------------------------------*
 |                                                                           |
 |                            ANSYS RUN COMPLETED                            |
 |                                                                           |
 |---------------------------------------------------------------------------|
 |                                                                           |
 | Ansys Release 17.2          Build 17.2         UP20160718     LINUX x64   |
 |                                                                           |
 |---------------------------------------------------------------------------|
 |                                                                           |
 | Database Requested(-db)  1024 MB    Scratch Memory Requested      1024 MB |
 | Maximum Database Used       4 MB    Maximum Scratch Memory Used      8 MB |
 |                                                                           |
 |---------------------------------------------------------------------------|
 |                                                                           |
 |        CP Time      (sec) =          0.736       Time  =  17:59:10        |
 |        Elapsed Time (sec) =          3.000       Date  =  07/26/2019      |
 |                                                                           |
 *---------------------------------------------------------------------------*
